
     RDKit          3D

 60 63  0  0  0  0  0  0  0  0999 V2000
   10.2904   43.7682   33.8031 C   0  0  0  0  0  0  0  0  0  0  0  0
   11.4118   43.5808   34.3603 O   0  0  0  0  0  0  0  0  0  0  0  0
    9.3644   42.7327   33.7094 O   0  0  0  0  0  0  0  0  0  0  0  0
    9.8844   41.2330   34.2850 P   0  0  0  0  0  5  0  0  0  0  0  0
   10.3672   41.4653   35.8752 O   0  0  0  0  0  1  0  0  0  0  0  0
    9.9696   45.1050   33.2284 C   0  0  1  0  0  0  0  0  0  0  0  0
   11.0569   46.0521   33.4894 N   0  0  0  0  0  0  0  0  0  0  0  0
    9.7162   44.9862   31.7147 C   0  0  0  0  0  0  0  0  0  0  0  0
    9.2971   46.3074   31.1227 C   0  0  0  0  0  0  0  0  0  0  0  0
    7.9613   46.7284   31.2100 C   0  0  0  0  0  0  0  0  0  0  0  0
   10.2444   47.1491   30.5197 C   0  0  0  0  0  0  0  0  0  0  0  0
    7.5742   47.9656   30.6865 C   0  0  0  0  0  0  0  0  0  0  0  0
    9.8570   48.3859   29.9966 C   0  0  0  0  0  0  0  0  0  0  0  0
    8.5237   48.8051   30.0730 C   0  0  0  0  0  0  0  0  0  0  0  0
    8.1858   50.0549   29.5329 O   0  0  0  0  0  0  0  0  0  0  0  0
    6.8728   50.6057   29.5416 C   0  0  0  0  0  0  0  0  0  0  0  0
    8.8068   40.1904   34.2084 O   0  0  0  0  0  0  0  0  0  0  0  0
   11.2361   40.7921   33.3659 O   0  0  0  0  0  0  0  0  0  0  0  0
   10.9129   40.6859   31.9933 C   0  0  0  0  0  0  0  0  0  0  0  0
   11.5160   39.3780   31.4396 C   0  0  0  0  0  0  0  0  0  0  0  0
   12.7467   39.0861   32.0743 O   0  0  0  0  0  0  0  0  0  0  0  0
   10.6044   38.1871   31.6669 C   0  0  0  0  0  0  0  0  0  0  0  0
   12.9344   37.6796   32.0283 C   0  0  0  0  0  0  0  0  0  0  0  0
    9.6377   38.0919   30.6487 O   0  0  0  0  0  0  0  0  0  0  0  0
   11.5760   37.0133   31.7057 C   0  0  0  0  0  0  0  0  0  0  0  0
   13.4909   37.2180   33.3233 N   0  0  0  0  0  0  0  0  0  0  0  0
   11.6234   36.3374   30.4685 O   0  0  0  0  0  0  0  0  0  0  0  0
   14.4764   36.3273   33.5727 C   0  0  0  0  0  0  0  0  0  0  0  0
   13.1182   37.6317   34.5686 C   0  0  0  0  0  0  0  0  0  0  0  0
   15.2065   35.6139   32.6738 N   0  0  0  0  0  0  0  0  0  0  0  0
   14.6735   36.2276   34.9181 C   0  0  0  0  0  0  0  0  0  0  0  0
   13.8227   37.0458   35.5781 N   0  0  0  0  0  0  0  0  0  0  0  0
   16.1637   34.7593   33.1547 C   0  0  0  0  0  0  0  0  0  0  0  0
   15.6516   35.3493   35.4130 C   0  0  0  0  0  0  0  0  0  0  0  0
   16.3792   34.6310   34.5042 N   0  0  0  0  0  0  0  0  0  0  0  0
   15.9002   35.1934   36.8089 N   0  0  0  0  0  0  0  0  0  0  0  0
    9.0441   45.4766   33.7212 H   0  0  0  0  0  0  0  0  0  0  0  0
   11.9530   45.6972   33.0805 H   0  0  0  0  0  0  0  0  0  0  0  0
   11.1830   46.1617   34.5225 H   0  0  0  0  0  0  0  0  0  0  0  0
    8.9145   44.2381   31.5256 H   0  0  0  0  0  0  0  0  0  0  0  0
   10.6320   44.6104   31.2059 H   0  0  0  0  0  0  0  0  0  0  0  0
    7.2199   46.0979   31.6854 H   0  0  0  0  0  0  0  0  0  0  0  0
   11.2831   46.8489   30.4564 H   0  0  0  0  0  0  0  0  0  0  0  0
    6.5368   48.2604   30.7665 H   0  0  0  0  0  0  0  0  0  0  0  0
   10.5975   49.0242   29.5313 H   0  0  0  0  0  0  0  0  0  0  0  0
    6.1780   49.9456   28.9807 H   0  0  0  0  0  0  0  0  0  0  0  0
    6.8934   51.5997   29.0497 H   0  0  0  0  0  0  0  0  0  0  0  0
    6.5193   50.7333   30.5866 H   0  0  0  0  0  0  0  0  0  0  0  0
    9.8228   40.7220   31.7573 H   0  0  0  0  0  0  0  0  0  0  0  0
   11.3848   41.5429   31.4667 H   0  0  0  0  0  0  0  0  0  0  0  0
   11.6982   39.5021   30.3471 H   0  0  0  0  0  0  0  0  0  0  0  0
   10.1091   38.2773   32.6628 H   0  0  0  0  0  0  0  0  0  0  0  0
   13.6670   37.4554   31.2213 H   0  0  0  0  0  0  0  0  0  0  0  0
    8.9778   37.4159   30.9531 H   0  0  0  0  0  0  0  0  0  0  0  0
   11.2860   36.3045   32.5177 H   0  0  0  0  0  0  0  0  0  0  0  0
   10.8690   35.6921   30.4658 H   0  0  0  0  0  0  0  0  0  0  0  0
   12.3356   38.3588   34.7441 H   0  0  0  0  0  0  0  0  0  0  0  0
   16.7571   34.1787   32.4620 H   0  0  0  0  0  0  0  0  0  0  0  0
   16.6360   34.5315   37.1415 H   0  0  0  0  0  0  0  0  0  0  0  0
   15.3530   35.7358   37.5137 H   0  0  0  0  0  0  0  0  0  0  0  0
  1  2  2  0
  1  3  1  0
  3  4  1  0
  4  5  1  0
  6  1  1  0
  7  6  1  0
  6  8  1  0
  8  9  1  0
  9 10  2  0
 11  9  1  0
 10 12  1  0
 13 11  2  0
 12 14  2  0
 14 13  1  0
 14 15  1  0
 15 16  1  0
  4 17  2  0
  4 18  1  0
 19 18  1  0
 19 20  1  0
 20 21  1  0
 20 22  1  0
 21 23  1  0
 22 24  1  0
 22 25  1  0
 25 23  1  0
 23 26  1  0
 25 27  1  0
 28 26  1  0
 29 26  1  0
 30 28  2  0
 28 31  1  0
 32 29  2  0
 33 30  1  0
 31 34  2  0
 31 32  1  0
 35 33  2  0
 35 34  1  0
 34 36  1  0
  6 37  1  1
  7 38  1  0
  7 39  1  0
  8 40  1  0
  8 41  1  0
 10 42  1  0
 11 43  1  0
 12 44  1  0
 13 45  1  0
 16 46  1  0
 16 47  1  0
 16 48  1  0
 19 49  1  0
 19 50  1  0
 20 51  1  0
 22 52  1  0
 23 53  1  0
 24 54  1  0
 25 55  1  0
 27 56  1  0
 29 57  1  0
 33 58  1  0
 36 59  1  0
 36 60  1  0
M  CHG  1   5  -1
M  END
>  <EmbedRMS>  (1) 
0.08942550430163226

$$$$

     RDKit          3D

 60 63  0  0  0  0  0  0  0  0999 V2000
   10.2904   43.7682   33.8031 C   0  0  0  0  0  0  0  0  0  0  0  0
   11.4117   43.5807   34.3603 O   0  0  0  0  0  0  0  0  0  0  0  0
    9.3643   42.7327   33.7094 O   0  0  0  0  0  0  0  0  0  0  0  0
    9.8843   41.2331   34.2850 P   0  0  0  0  0  5  0  0  0  0  0  0
   10.3672   41.4653   35.8751 O   0  0  0  0  0  1  0  0  0  0  0  0
    9.9696   45.1050   33.2284 C   0  0  1  0  0  0  0  0  0  0  0  0
   11.0569   46.0521   33.4894 N   0  0  0  0  0  0  0  0  0  0  0  0
    9.7163   44.9861   31.7146 C   0  0  0  0  0  0  0  0  0  0  0  0
    9.2973   46.3072   31.1225 C   0  0  0  0  0  0  0  0  0  0  0  0
    7.9616   46.7283   31.2099 C   0  0  0  0  0  0  0  0  0  0  0  0
   10.2447   47.1488   30.5194 C   0  0  0  0  0  0  0  0  0  0  0  0
    7.5745   47.9656   30.6863 C   0  0  0  0  0  0  0  0  0  0  0  0
    9.8573   48.3856   29.9961 C   0  0  0  0  0  0  0  0  0  0  0  0
    8.5241   48.8050   30.0727 C   0  0  0  0  0  0  0  0  0  0  0  0
    8.1863   50.0548   29.5326 O   0  0  0  0  0  0  0  0  0  0  0  0
    6.8733   50.6057   29.5415 C   0  0  0  0  0  0  0  0  0  0  0  0
    8.8067   40.1904   34.2085 O   0  0  0  0  0  0  0  0  0  0  0  0
   11.2357   40.7922   33.3657 O   0  0  0  0  0  0  0  0  0  0  0  0
   10.9121   40.6852   31.9932 C   0  0  0  0  0  0  0  0  0  0  0  0
   11.5169   39.3780   31.4397 C   0  0  0  0  0  0  0  0  0  0  0  0
   12.7471   39.0875   32.0760 O   0  0  0  0  0  0  0  0  0  0  0  0
   10.6066   38.1854   31.6656 C   0  0  0  0  0  0  0  0  0  0  0  0
   12.9370   37.6817   32.0291 C   0  0  0  0  0  0  0  0  0  0  0  0
    9.6403   38.0884   30.6474 O   0  0  0  0  0  0  0  0  0  0  0  0
   11.5788   37.0138   31.7045 C   0  0  0  0  0  0  0  0  0  0  0  0
   13.4915   37.2184   33.3239 N   0  0  0  0  0  0  0  0  0  0  0  0
   11.6125   36.3391   30.4674 O   0  0  0  0  0  0  0  0  0  0  0  0
   14.4765   36.3273   33.5730 C   0  0  0  0  0  0  0  0  0  0  0  0
   13.1184   37.6318   34.5691 C   0  0  0  0  0  0  0  0  0  0  0  0
   15.2066   35.6140   32.6740 N   0  0  0  0  0  0  0  0  0  0  0  0
   14.6735   36.2274   34.9184 C   0  0  0  0  0  0  0  0  0  0  0  0
   13.8227   37.0456   35.5785 N   0  0  0  0  0  0  0  0  0  0  0  0
   16.1637   34.7594   33.1547 C   0  0  0  0  0  0  0  0  0  0  0  0
   15.6516   35.3491   35.4131 C   0  0  0  0  0  0  0  0  0  0  0  0
   16.3792   34.6309   34.5042 N   0  0  0  0  0  0  0  0  0  0  0  0
   15.9003   35.1932   36.8090 N   0  0  0  0  0  0  0  0  0  0  0  0
    9.0440   45.4766   33.7211 H   0  0  0  0  0  0  0  0  0  0  0  0
   11.1829   46.1617   34.5226 H   0  0  0  0  0  0  0  0  0  0  0  0
   11.9530   45.6971   33.0806 H   0  0  0  0  0  0  0  0  0  0  0  0
    8.9146   44.2380   31.5255 H   0  0  0  0  0  0  0  0  0  0  0  0
   10.6322   44.6103   31.2059 H   0  0  0  0  0  0  0  0  0  0  0  0
    7.2201   46.0980   31.6854 H   0  0  0  0  0  0  0  0  0  0  0  0
   11.2833   46.8486   30.4561 H   0  0  0  0  0  0  0  0  0  0  0  0
    6.5372   48.2605   30.7663 H   0  0  0  0  0  0  0  0  0  0  0  0
   10.5979   49.0238   29.5308 H   0  0  0  0  0  0  0  0  0  0  0  0
    6.1784   49.9457   28.9806 H   0  0  0  0  0  0  0  0  0  0  0  0
    6.5199   50.7333   30.5865 H   0  0  0  0  0  0  0  0  0  0  0  0
    6.8939   51.5997   29.0497 H   0  0  0  0  0  0  0  0  0  0  0  0
   11.3824   41.5428   31.4662 H   0  0  0  0  0  0  0  0  0  0  0  0
    9.8218   40.7195   31.7578 H   0  0  0  0  0  0  0  0  0  0  0  0
   11.7002   39.5026   30.3474 H   0  0  0  0  0  0  0  0  0  0  0  0
   10.1093   38.2753   32.6605 H   0  0  0  0  0  0  0  0  0  0  0  0
   13.6711   37.4601   31.2227 H   0  0  0  0  0  0  0  0  0  0  0  0
    9.0032   37.3836   30.9348 H   0  0  0  0  0  0  0  0  0  0  0  0
   11.2705   36.3052   32.5089 H   0  0  0  0  0  0  0  0  0  0  0  0
   12.1446   35.5140   30.6143 H   0  0  0  0  0  0  0  0  0  0  0  0
   12.3362   38.3593   34.7446 H   0  0  0  0  0  0  0  0  0  0  0  0
   16.7570   34.1788   32.4619 H   0  0  0  0  0  0  0  0  0  0  0  0
   15.3531   35.7355   37.5139 H   0  0  0  0  0  0  0  0  0  0  0  0
   16.6362   34.5314   37.1415 H   0  0  0  0  0  0  0  0  0  0  0  0
  1  2  2  0
  1  3  1  0
  3  4  1  0
  4  5  1  0
  6  1  1  0
  7  6  1  0
  6  8  1  0
  8  9  1  0
  9 10  2  0
 11  9  1  0
 10 12  1  0
 13 11  2  0
 12 14  2  0
 14 13  1  0
 14 15  1  0
 15 16  1  0
  4 17  2  0
  4 18  1  0
 19 18  1  0
 19 20  1  0
 20 21  1  0
 20 22  1  0
 21 23  1  0
 22 24  1  0
 22 25  1  0
 25 23  1  0
 23 26  1  0
 25 27  1  0
 28 26  1  0
 29 26  1  0
 30 28  2  0
 28 31  1  0
 32 29  2  0
 33 30  1  0
 31 34  2  0
 31 32  1  0
 35 33  2  0
 35 34  1  0
 34 36  1  0
  6 37  1  1
  7 38  1  0
  7 39  1  0
  8 40  1  0
  8 41  1  0
 10 42  1  0
 11 43  1  0
 12 44  1  0
 13 45  1  0
 16 46  1  0
 16 47  1  0
 16 48  1  0
 19 49  1  0
 19 50  1  0
 20 51  1  0
 22 52  1  0
 23 53  1  0
 24 54  1  0
 25 55  1  0
 27 56  1  0
 29 57  1  0
 33 58  1  0
 36 59  1  0
 36 60  1  0
M  CHG  1   5  -1
M  END
>  <EmbedRMS>  (2) 
0.08924280210356786

$$$$

     RDKit          3D

 60 63  0  0  0  0  0  0  0  0999 V2000
   10.3000   43.7681   33.7923 C   0  0  0  0  0  0  0  0  0  0  0  0
   11.4162   43.5823   34.3593 O   0  0  0  0  0  0  0  0  0  0  0  0
    9.3695   42.7351   33.7053 O   0  0  0  0  0  0  0  0  0  0  0  0
    9.8864   41.2350   34.2832 P   0  0  0  0  0  5  0  0  0  0  0  0
   10.3697   41.4670   35.8733 O   0  0  0  0  0  1  0  0  0  0  0  0
    9.9795   45.1073   33.2192 C   0  0  1  0  0  0  0  0  0  0  0  0
   11.0353   46.0791   33.5233 N   0  0  0  0  0  0  0  0  0  0  0  0
    9.6905   45.0377   31.6964 C   0  0  0  0  0  0  0  0  0  0  0  0
   10.8933   45.2656   30.8025 C   0  0  0  0  0  0  0  0  0  0  0  0
   12.0145   44.4237   30.8717 C   0  0  0  0  0  0  0  0  0  0  0  0
   10.8847   46.3089   29.8611 C   0  0  0  0  0  0  0  0  0  0  0  0
   13.1068   44.6239   30.0239 C   0  0  0  0  0  0  0  0  0  0  0  0
   11.9772   46.5088   29.0118 C   0  0  0  0  0  0  0  0  0  0  0  0
   13.0996   45.6633   29.0880 C   0  0  0  0  0  0  0  0  0  0  0  0
   14.2199   45.8222   28.2589 O   0  0  0  0  0  0  0  0  0  0  0  0
   14.3475   46.8344   27.2656 C   0  0  0  0  0  0  0  0  0  0  0  0
    8.8075   40.1933   34.2079 O   0  0  0  0  0  0  0  0  0  0  0  0
   11.2360   40.7939   33.3610 O   0  0  0  0  0  0  0  0  0  0  0  0
   10.9036   40.6741   31.9912 C   0  0  0  0  0  0  0  0  0  0  0  0
   11.5130   39.3713   31.4399 C   0  0  0  0  0  0  0  0  0  0  0  0
   12.7441   39.0839   32.0750 O   0  0  0  0  0  0  0  0  0  0  0  0
   10.6036   38.1808   31.6676 C   0  0  0  0  0  0  0  0  0  0  0  0
   12.9344   37.6781   32.0285 C   0  0  0  0  0  0  0  0  0  0  0  0
    9.6368   38.0867   30.6494 O   0  0  0  0  0  0  0  0  0  0  0  0
   11.5770   37.0095   31.7052 C   0  0  0  0  0  0  0  0  0  0  0  0
   13.4910   37.2174   33.3235 N   0  0  0  0  0  0  0  0  0  0  0  0
   11.6250   36.3355   30.4672 O   0  0  0  0  0  0  0  0  0  0  0  0
   14.4766   36.3270   33.5729 C   0  0  0  0  0  0  0  0  0  0  0  0
   13.1182   37.6313   34.5687 C   0  0  0  0  0  0  0  0  0  0  0  0
   15.2067   35.6136   32.6740 N   0  0  0  0  0  0  0  0  0  0  0  0
   14.6737   36.2275   34.9183 C   0  0  0  0  0  0  0  0  0  0  0  0
   13.8228   37.0457   35.5783 N   0  0  0  0  0  0  0  0  0  0  0  0
   16.1639   34.7592   33.1548 C   0  0  0  0  0  0  0  0  0  0  0  0
   15.6518   35.3492   35.4132 C   0  0  0  0  0  0  0  0  0  0  0  0
   16.3793   34.6309   34.5044 N   0  0  0  0  0  0  0  0  0  0  0  0
   15.9003   35.1933   36.8091 N   0  0  0  0  0  0  0  0  0  0  0  0
    9.0442   45.4463   33.7180 H   0  0  0  0  0  0  0  0  0  0  0  0
   11.9768   45.7173   33.2477 H   0  0  0  0  0  0  0  0  0  0  0  0
   11.0542   46.2449   34.5564 H   0  0  0  0  0  0  0  0  0  0  0  0
    8.9154   45.8025   31.4688 H   0  0  0  0  0  0  0  0  0  0  0  0
    9.2305   44.0614   31.4290 H   0  0  0  0  0  0  0  0  0  0  0  0
   12.0595   43.6320   31.6022 H   0  0  0  0  0  0  0  0  0  0  0  0
   10.0308   46.9699   29.7801 H   0  0  0  0  0  0  0  0  0  0  0  0
   13.9665   43.9698   30.0976 H   0  0  0  0  0  0  0  0  0  0  0  0
   11.9380   47.3216   28.2995 H   0  0  0  0  0  0  0  0  0  0  0  0
   13.5448   46.7271   26.5058 H   0  0  0  0  0  0  0  0  0  0  0  0
   15.3300   46.7265   26.7621 H   0  0  0  0  0  0  0  0  0  0  0  0
   14.2974   47.8392   27.7358 H   0  0  0  0  0  0  0  0  0  0  0  0
   11.3649   41.5197   31.4482 H   0  0  0  0  0  0  0  0  0  0  0  0
    9.8119   40.7029   31.7616 H   0  0  0  0  0  0  0  0  0  0  0  0
   11.6954   39.4944   30.3470 H   0  0  0  0  0  0  0  0  0  0  0  0
   10.1085   38.2695   32.6639 H   0  0  0  0  0  0  0  0  0  0  0  0
   13.6678   37.4554   31.2217 H   0  0  0  0  0  0  0  0  0  0  0  0
    8.9779   37.4092   30.9526 H   0  0  0  0  0  0  0  0  0  0  0  0
   11.2884   36.2991   32.5165 H   0  0  0  0  0  0  0  0  0  0  0  0
   10.8720   35.6885   30.4641 H   0  0  0  0  0  0  0  0  0  0  0  0
   12.3355   38.3584   34.7440 H   0  0  0  0  0  0  0  0  0  0  0  0
   16.7573   34.1785   32.4622 H   0  0  0  0  0  0  0  0  0  0  0  0
   15.3531   35.7357   37.5139 H   0  0  0  0  0  0  0  0  0  0  0  0
   16.6362   34.5315   37.1416 H   0  0  0  0  0  0  0  0  0  0  0  0
  1  2  2  0
  1  3  1  0
  3  4  1  0
  4  5  1  0
  6  1  1  0
  7  6  1  0
  6  8  1  0
  8  9  1  0
  9 10  2  0
 11  9  1  0
 10 12  1  0
 13 11  2  0
 12 14  2  0
 14 13  1  0
 14 15  1  0
 15 16  1  0
  4 17  2  0
  4 18  1  0
 19 18  1  0
 19 20  1  0
 20 21  1  0
 20 22  1  0
 21 23  1  0
 22 24  1  0
 22 25  1  0
 25 23  1  0
 23 26  1  0
 25 27  1  0
 28 26  1  0
 29 26  1  0
 30 28  2  0
 28 31  1  0
 32 29  2  0
 33 30  1  0
 31 34  2  0
 31 32  1  0
 35 33  2  0
 35 34  1  0
 34 36  1  0
  6 37  1  1
  7 38  1  0
  7 39  1  0
  8 40  1  0
  8 41  1  0
 10 42  1  0
 11 43  1  0
 12 44  1  0
 13 45  1  0
 16 46  1  0
 16 47  1  0
 16 48  1  0
 19 49  1  0
 19 50  1  0
 20 51  1  0
 22 52  1  0
 23 53  1  0
 24 54  1  0
 25 55  1  0
 27 56  1  0
 29 57  1  0
 33 58  1  0
 36 59  1  0
 36 60  1  0
M  CHG  1   5  -1
M  END
>  <EmbedRMS>  (3) 
0.09120384422796793

$$$$

     RDKit          3D

 60 63  0  0  0  0  0  0  0  0999 V2000
   10.2894   43.7709   33.7894 C   0  0  0  0  0  0  0  0  0  0  0  0
   11.4115   43.5887   34.3475 O   0  0  0  0  0  0  0  0  0  0  0  0
    9.3641   42.7335   33.7088 O   0  0  0  0  0  0  0  0  0  0  0  0
    9.8855   41.2349   34.2856 P   0  0  0  0  0  5  0  0  0  0  0  0
   10.3683   41.4680   35.8754 O   0  0  0  0  0  1  0  0  0  0  0  0
    9.9587   45.1134   33.2315 C   0  0  1  0  0  0  0  0  0  0  0  0
   11.0635   46.0339   33.5070 N   0  0  0  0  0  0  0  0  0  0  0  0
    9.6704   45.0603   31.7117 C   0  0  0  0  0  0  0  0  0  0  0  0
    8.4255   44.2746   31.3754 C   0  0  0  0  0  0  0  0  0  0  0  0
    8.5152   43.0839   30.6378 C   0  0  0  0  0  0  0  0  0  0  0  0
    7.1637   44.7277   31.7921 C   0  0  0  0  0  0  0  0  0  0  0  0
    7.3667   42.3420   30.3504 C   0  0  0  0  0  0  0  0  0  0  0  0
    6.0142   43.9868   31.5016 C   0  0  0  0  0  0  0  0  0  0  0  0
    6.1098   42.7817   30.7799 C   0  0  0  0  0  0  0  0  0  0  0  0
    4.9878   41.9992   30.4693 O   0  0  0  0  0  0  0  0  0  0  0  0
    3.6532   42.3232   30.8451 C   0  0  0  0  0  0  0  0  0  0  0  0
    8.8076   40.1923   34.2097 O   0  0  0  0  0  0  0  0  0  0  0  0
   11.2366   40.7917   33.3668 O   0  0  0  0  0  0  0  0  0  0  0  0
   10.9113   40.6823   31.9952 C   0  0  0  0  0  0  0  0  0  0  0  0
   11.5172   39.3771   31.4406 C   0  0  0  0  0  0  0  0  0  0  0  0
   12.7475   39.0870   32.0763 O   0  0  0  0  0  0  0  0  0  0  0  0
   10.6069   38.1846   31.6658 C   0  0  0  0  0  0  0  0  0  0  0  0
   12.9372   37.6812   32.0292 C   0  0  0  0  0  0  0  0  0  0  0  0
    9.6405   38.0884   30.6473 O   0  0  0  0  0  0  0  0  0  0  0  0
   11.5791   37.0132   31.7043 C   0  0  0  0  0  0  0  0  0  0  0  0
   13.4915   37.2181   33.3240 N   0  0  0  0  0  0  0  0  0  0  0  0
   11.6128   36.3390   30.4670 O   0  0  0  0  0  0  0  0  0  0  0  0
   14.4766   36.3271   33.5731 C   0  0  0  0  0  0  0  0  0  0  0  0
   13.1184   37.6316   34.5691 C   0  0  0  0  0  0  0  0  0  0  0  0
   15.2066   35.6139   32.6740 N   0  0  0  0  0  0  0  0  0  0  0  0
   14.6735   36.2273   34.9184 C   0  0  0  0  0  0  0  0  0  0  0  0
   13.8228   37.0455   35.5785 N   0  0  0  0  0  0  0  0  0  0  0  0
   16.1638   34.7593   33.1548 C   0  0  0  0  0  0  0  0  0  0  0  0
   15.6517   35.3490   35.4132 C   0  0  0  0  0  0  0  0  0  0  0  0
   16.3792   34.6308   34.5043 N   0  0  0  0  0  0  0  0  0  0  0  0
   15.9004   35.1932   36.8090 N   0  0  0  0  0  0  0  0  0  0  0  0
    9.0577   45.4862   33.7658 H   0  0  0  0  0  0  0  0  0  0  0  0
   10.7585   47.0044   33.2628 H   0  0  0  0  0  0  0  0  0  0  0  0
   11.8782   45.8016   32.8918 H   0  0  0  0  0  0  0  0  0  0  0  0
    9.5343   46.0958   31.3307 H   0  0  0  0  0  0  0  0  0  0  0  0
   10.5539   44.6380   31.1830 H   0  0  0  0  0  0  0  0  0  0  0  0
    9.4743   42.7269   30.2861 H   0  0  0  0  0  0  0  0  0  0  0  0
    7.0698   45.6537   32.3456 H   0  0  0  0  0  0  0  0  0  0  0  0
    7.4539   41.4198   29.7897 H   0  0  0  0  0  0  0  0  0  0  0  0
    5.0579   44.3590   31.8428 H   0  0  0  0  0  0  0  0  0  0  0  0
    3.5697   42.3738   31.9513 H   0  0  0  0  0  0  0  0  0  0  0  0
    2.9698   41.5328   30.4729 H   0  0  0  0  0  0  0  0  0  0  0  0
    3.3544   43.2930   30.3941 H   0  0  0  0  0  0  0  0  0  0  0  0
    9.8203   40.7066   31.7643 H   0  0  0  0  0  0  0  0  0  0  0  0
   11.3780   41.5407   31.4668 H   0  0  0  0  0  0  0  0  0  0  0  0
   11.7000   39.5029   30.3483 H   0  0  0  0  0  0  0  0  0  0  0  0
   10.1095   38.2738   32.6606 H   0  0  0  0  0  0  0  0  0  0  0  0
   13.6715   37.4597   31.2229 H   0  0  0  0  0  0  0  0  0  0  0  0
    9.0017   37.3856   30.9356 H   0  0  0  0  0  0  0  0  0  0  0  0
   11.2709   36.3044   32.5085 H   0  0  0  0  0  0  0  0  0  0  0  0
   12.1450   35.5139   30.6135 H   0  0  0  0  0  0  0  0  0  0  0  0
   12.3362   38.3592   34.7445 H   0  0  0  0  0  0  0  0  0  0  0  0
   16.7571   34.1787   32.4620 H   0  0  0  0  0  0  0  0  0  0  0  0
   16.6363   34.5314   37.1415 H   0  0  0  0  0  0  0  0  0  0  0  0
   15.3532   35.7355   37.5139 H   0  0  0  0  0  0  0  0  0  0  0  0
  1  2  2  0
  1  3  1  0
  3  4  1  0
  4  5  1  0
  6  1  1  0
  7  6  1  0
  6  8  1  0
  8  9  1  0
  9 10  2  0
 11  9  1  0
 10 12  1  0
 13 11  2  0
 12 14  2  0
 14 13  1  0
 14 15  1  0
 15 16  1  0
  4 17  2  0
  4 18  1  0
 19 18  1  0
 19 20  1  0
 20 21  1  0
 20 22  1  0
 21 23  1  0
 22 24  1  0
 22 25  1  0
 25 23  1  0
 23 26  1  0
 25 27  1  0
 28 26  1  0
 29 26  1  0
 30 28  2  0
 28 31  1  0
 32 29  2  0
 33 30  1  0
 31 34  2  0
 31 32  1  0
 35 33  2  0
 35 34  1  0
 34 36  1  0
  6 37  1  1
  7 38  1  0
  7 39  1  0
  8 40  1  0
  8 41  1  0
 10 42  1  0
 11 43  1  0
 12 44  1  0
 13 45  1  0
 16 46  1  0
 16 47  1  0
 16 48  1  0
 19 49  1  0
 19 50  1  0
 20 51  1  0
 22 52  1  0
 23 53  1  0
 24 54  1  0
 25 55  1  0
 27 56  1  0
 29 57  1  0
 33 58  1  0
 36 59  1  0
 36 60  1  0
M  CHG  1   5  -1
M  END
>  <EmbedRMS>  (4) 
0.08903601223453425

$$$$

     RDKit          3D

 60 63  0  0  0  0  0  0  0  0999 V2000
   10.2905   43.7681   33.8032 C   0  0  0  0  0  0  0  0  0  0  0  0
   11.4118   43.5808   34.3605 O   0  0  0  0  0  0  0  0  0  0  0  0
    9.3647   42.7325   33.7093 O   0  0  0  0  0  0  0  0  0  0  0  0
    9.8845   41.2329   34.2855 P   0  0  0  0  0  5  0  0  0  0  0  0
   10.3662   41.4654   35.8760 O   0  0  0  0  0  1  0  0  0  0  0  0
    9.9698   45.1048   33.2280 C   0  0  1  0  0  0  0  0  0  0  0  0
   11.0568   46.0521   33.4895 N   0  0  0  0  0  0  0  0  0  0  0  0
    9.7175   44.9853   31.7142 C   0  0  0  0  0  0  0  0  0  0  0  0
    9.2988   46.3062   31.1212 C   0  0  0  0  0  0  0  0  0  0  0  0
    7.9628   46.7265   31.2059 C   0  0  0  0  0  0  0  0  0  0  0  0
   10.2469   47.1482   30.5195 C   0  0  0  0  0  0  0  0  0  0  0  0
    7.5777   47.9632   30.6808 C   0  0  0  0  0  0  0  0  0  0  0  0
    9.8613   48.3854   29.9946 C   0  0  0  0  0  0  0  0  0  0  0  0
    8.5183   48.8016   30.0713 C   0  0  0  0  0  0  0  0  0  0  0  0
    8.0815   50.0326   29.5598 O   0  0  0  0  0  0  0  0  0  0  0  0
    8.9268   50.9812   28.9170 C   0  0  0  0  0  0  0  0  0  0  0  0
    8.8072   40.1901   34.2080 O   0  0  0  0  0  0  0  0  0  0  0  0
   11.2374   40.7917   33.3686 O   0  0  0  0  0  0  0  0  0  0  0  0
   10.9182   40.6904   31.9950 C   0  0  0  0  0  0  0  0  0  0  0  0
   11.5166   39.3808   31.4400 C   0  0  0  0  0  0  0  0  0  0  0  0
   12.7474   39.0867   32.0737 O   0  0  0  0  0  0  0  0  0  0  0  0
   10.6029   38.1894   31.6666 C   0  0  0  0  0  0  0  0  0  0  0  0
   12.9333   37.6802   32.0280 C   0  0  0  0  0  0  0  0  0  0  0  0
    9.6396   38.0779   30.6455 O   0  0  0  0  0  0  0  0  0  0  0  0
   11.5738   37.0158   31.7057 C   0  0  0  0  0  0  0  0  0  0  0  0
   13.4903   37.2180   33.3230 N   0  0  0  0  0  0  0  0  0  0  0  0
   11.6211   36.3379   30.4695 O   0  0  0  0  0  0  0  0  0  0  0  0
   14.4760   36.3274   33.5724 C   0  0  0  0  0  0  0  0  0  0  0  0
   13.1178   37.6318   34.5684 C   0  0  0  0  0  0  0  0  0  0  0  0
   15.2063   35.6140   32.6736 N   0  0  0  0  0  0  0  0  0  0  0  0
   14.6733   36.2278   34.9179 C   0  0  0  0  0  0  0  0  0  0  0  0
   13.8225   37.0459   35.5779 N   0  0  0  0  0  0  0  0  0  0  0  0
   16.1635   34.7595   33.1545 C   0  0  0  0  0  0  0  0  0  0  0  0
   15.6515   35.3494   35.4129 C   0  0  0  0  0  0  0  0  0  0  0  0
   16.3790   34.6311   34.5040 N   0  0  0  0  0  0  0  0  0  0  0  0
   15.9001   35.1935   36.8087 N   0  0  0  0  0  0  0  0  0  0  0  0
    9.0438   45.4764   33.7201 H   0  0  0  0  0  0  0  0  0  0  0  0
   11.1823   46.1618   34.5227 H   0  0  0  0  0  0  0  0  0  0  0  0
   11.9531   45.6973   33.0811 H   0  0  0  0  0  0  0  0  0  0  0  0
   10.6337   44.6094   31.2062 H   0  0  0  0  0  0  0  0  0  0  0  0
    8.9160   44.2371   31.5248 H   0  0  0  0  0  0  0  0  0  0  0  0
    7.2201   46.0965   31.6800 H   0  0  0  0  0  0  0  0  0  0  0  0
   11.2857   46.8478   30.4588 H   0  0  0  0  0  0  0  0  0  0  0  0
    6.5428   48.2736   30.7501 H   0  0  0  0  0  0  0  0  0  0  0  0
   10.6143   49.0105   29.5346 H   0  0  0  0  0  0  0  0  0  0  0  0
    9.7199   51.3213   29.6161 H   0  0  0  0  0  0  0  0  0  0  0  0
    8.3210   51.8592   28.6129 H   0  0  0  0  0  0  0  0  0  0  0  0
    9.3835   50.5326   28.0096 H   0  0  0  0  0  0  0  0  0  0  0  0
    9.8302   40.7405   31.7554 H   0  0  0  0  0  0  0  0  0  0  0  0
   11.3989   41.5451   31.4727 H   0  0  0  0  0  0  0  0  0  0  0  0
   11.6978   39.5051   30.3473 H   0  0  0  0  0  0  0  0  0  0  0  0
   10.1085   38.2634   32.6648 H   0  0  0  0  0  0  0  0  0  0  0  0
   13.6654   37.4549   31.2207 H   0  0  0  0  0  0  0  0  0  0  0  0
    8.8968   38.6908   30.8844 H   0  0  0  0  0  0  0  0  0  0  0  0
   11.2845   36.3064   32.5176 H   0  0  0  0  0  0  0  0  0  0  0  0
   10.8523   35.7097   30.4590 H   0  0  0  0  0  0  0  0  0  0  0  0
   12.3353   38.3589   34.7440 H   0  0  0  0  0  0  0  0  0  0  0  0
   16.7569   34.1789   32.4618 H   0  0  0  0  0  0  0  0  0  0  0  0
   15.3529   35.7359   37.5136 H   0  0  0  0  0  0  0  0  0  0  0  0
   16.6359   34.5317   37.1413 H   0  0  0  0  0  0  0  0  0  0  0  0
  1  2  2  0
  1  3  1  0
  3  4  1  0
  4  5  1  0
  6  1  1  0
  7  6  1  0
  6  8  1  0
  8  9  1  0
  9 10  2  0
 11  9  1  0
 10 12  1  0
 13 11  2  0
 12 14  2  0
 14 13  1  0
 14 15  1  0
 15 16  1  0
  4 17  2  0
  4 18  1  0
 19 18  1  0
 19 20  1  0
 20 21  1  0
 20 22  1  0
 21 23  1  0
 22 24  1  0
 22 25  1  0
 25 23  1  0
 23 26  1  0
 25 27  1  0
 28 26  1  0
 29 26  1  0
 30 28  2  0
 28 31  1  0
 32 29  2  0
 33 30  1  0
 31 34  2  0
 31 32  1  0
 35 33  2  0
 35 34  1  0
 34 36  1  0
  6 37  1  1
  7 38  1  0
  7 39  1  0
  8 40  1  0
  8 41  1  0
 10 42  1  0
 11 43  1  0
 12 44  1  0
 13 45  1  0
 16 46  1  0
 16 47  1  0
 16 48  1  0
 19 49  1  0
 19 50  1  0
 20 51  1  0
 22 52  1  0
 23 53  1  0
 24 54  1  0
 25 55  1  0
 27 56  1  0
 29 57  1  0
 33 58  1  0
 36 59  1  0
 36 60  1  0
M  CHG  1   5  -1
M  END
>  <EmbedRMS>  (5) 
0.0898658192025632

$$$$

     RDKit          3D

 60 63  0  0  0  0  0  0  0  0999 V2000
   10.2894   43.7709   33.7894 C   0  0  0  0  0  0  0  0  0  0  0  0
   11.4115   43.5887   34.3476 O   0  0  0  0  0  0  0  0  0  0  0  0
    9.3640   42.7336   33.7092 O   0  0  0  0  0  0  0  0  0  0  0  0
    9.8849   41.2353   34.2870 P   0  0  0  0  0  5  0  0  0  0  0  0
   10.3672   41.4686   35.8768 O   0  0  0  0  0  1  0  0  0  0  0  0
    9.9590   45.1133   33.2310 C   0  0  1  0  0  0  0  0  0  0  0  0
   11.0633   46.0340   33.5072 N   0  0  0  0  0  0  0  0  0  0  0  0
    9.6721   45.0598   31.7109 C   0  0  0  0  0  0  0  0  0  0  0  0
    8.4289   44.2718   31.3731 C   0  0  0  0  0  0  0  0  0  0  0  0
    8.5215   43.0825   30.6335 C   0  0  0  0  0  0  0  0  0  0  0  0
    7.1660   44.7216   31.7899 C   0  0  0  0  0  0  0  0  0  0  0  0
    7.3748   42.3385   30.3445 C   0  0  0  0  0  0  0  0  0  0  0  0
    6.0182   43.9786   31.4978 C   0  0  0  0  0  0  0  0  0  0  0  0
    6.1168   42.7748   30.7744 C   0  0  0  0  0  0  0  0  0  0  0  0
    4.9966   41.9902   30.4621 O   0  0  0  0  0  0  0  0  0  0  0  0
    3.6612   42.3106   30.8381 C   0  0  0  0  0  0  0  0  0  0  0  0
    8.8075   40.1923   34.2102 O   0  0  0  0  0  0  0  0  0  0  0  0
   11.2365   40.7917   33.3701 O   0  0  0  0  0  0  0  0  0  0  0  0
   10.9134   40.6878   31.9981 C   0  0  0  0  0  0  0  0  0  0  0  0
   11.5267   39.3897   31.4386 C   0  0  0  0  0  0  0  0  0  0  0  0
   12.7505   39.0917   32.0846 O   0  0  0  0  0  0  0  0  0  0  0  0
   10.6122   38.1911   31.6453 C   0  0  0  0  0  0  0  0  0  0  0  0
   12.9429   37.6854   32.0296 C   0  0  0  0  0  0  0  0  0  0  0  0
    9.6070   38.0859   30.6602 O   0  0  0  0  0  0  0  0  0  0  0  0
   11.5846   37.0184   31.6877 C   0  0  0  0  0  0  0  0  0  0  0  0
   13.4898   37.2162   33.3250 N   0  0  0  0  0  0  0  0  0  0  0  0
   11.6204   36.3065   30.4689 O   0  0  0  0  0  0  0  0  0  0  0  0
   14.4759   36.3263   33.5739 C   0  0  0  0  0  0  0  0  0  0  0  0
   13.1175   37.6307   34.5699 C   0  0  0  0  0  0  0  0  0  0  0  0
   15.2065   35.6139   32.6746 N   0  0  0  0  0  0  0  0  0  0  0  0
   14.6731   36.2267   34.9191 C   0  0  0  0  0  0  0  0  0  0  0  0
   13.8224   37.0450   35.5792 N   0  0  0  0  0  0  0  0  0  0  0  0
   16.1640   34.7596   33.1551 C   0  0  0  0  0  0  0  0  0  0  0  0
   15.6518   35.3489   35.4136 C   0  0  0  0  0  0  0  0  0  0  0  0
   16.3795   34.6310   34.5046 N   0  0  0  0  0  0  0  0  0  0  0  0
   15.9006   35.1931   36.8094 N   0  0  0  0  0  0  0  0  0  0  0  0
    9.0573   45.4859   33.7644 H   0  0  0  0  0  0  0  0  0  0  0  0
   11.8786   45.8017   32.8928 H   0  0  0  0  0  0  0  0  0  0  0  0
   10.7584   47.0044   33.2625 H   0  0  0  0  0  0  0  0  0  0  0  0
   10.5569   44.6392   31.1830 H   0  0  0  0  0  0  0  0  0  0  0  0
    9.5344   46.0951   31.3300 H   0  0  0  0  0  0  0  0  0  0  0  0
    9.4814   42.7282   30.2814 H   0  0  0  0  0  0  0  0  0  0  0  0
    7.0698   45.6465   32.3447 H   0  0  0  0  0  0  0  0  0  0  0  0
    7.4643   41.4174   29.7825 H   0  0  0  0  0  0  0  0  0  0  0  0
    5.0610   44.3481   31.8392 H   0  0  0  0  0  0  0  0  0  0  0  0
    3.3603   43.2804   30.3886 H   0  0  0  0  0  0  0  0  0  0  0  0
    3.5773   42.3592   31.9443 H   0  0  0  0  0  0  0  0  0  0  0  0
    2.9797   41.5192   30.4645 H   0  0  0  0  0  0  0  0  0  0  0  0
   11.3759   41.5518   31.4751 H   0  0  0  0  0  0  0  0  0  0  0  0
    9.8225   40.7072   31.7660 H   0  0  0  0  0  0  0  0  0  0  0  0
   11.7312   39.5351   30.3533 H   0  0  0  0  0  0  0  0  0  0  0  0
   10.1211   38.2669   32.6413 H   0  0  0  0  0  0  0  0  0  0  0  0
   13.6883   37.4713   31.2320 H   0  0  0  0  0  0  0  0  0  0  0  0
   10.0254   38.1780   29.7657 H   0  0  0  0  0  0  0  0  0  0  0  0
   11.2799   36.3119   32.4911 H   0  0  0  0  0  0  0  0  0  0  0  0
   11.9867   36.9107   29.7711 H   0  0  0  0  0  0  0  0  0  0  0  0
   12.3365   38.3595   34.7454 H   0  0  0  0  0  0  0  0  0  0  0  0
   16.7577   34.1794   32.4622 H   0  0  0  0  0  0  0  0  0  0  0  0
   15.3532   35.7351   37.5144 H   0  0  0  0  0  0  0  0  0  0  0  0
   16.6368   34.5315   37.1418 H   0  0  0  0  0  0  0  0  0  0  0  0
  1  2  2  0
  1  3  1  0
  3  4  1  0
  4  5  1  0
  6  1  1  0
  7  6  1  0
  6  8  1  0
  8  9  1  0
  9 10  2  0
 11  9  1  0
 10 12  1  0
 13 11  2  0
 12 14  2  0
 14 13  1  0
 14 15  1  0
 15 16  1  0
  4 17  2  0
  4 18  1  0
 19 18  1  0
 19 20  1  0
 20 21  1  0
 20 22  1  0
 21 23  1  0
 22 24  1  0
 22 25  1  0
 25 23  1  0
 23 26  1  0
 25 27  1  0
 28 26  1  0
 29 26  1  0
 30 28  2  0
 28 31  1  0
 32 29  2  0
 33 30  1  0
 31 34  2  0
 31 32  1  0
 35 33  2  0
 35 34  1  0
 34 36  1  0
  6 37  1  1
  7 38  1  0
  7 39  1  0
  8 40  1  0
  8 41  1  0
 10 42  1  0
 11 43  1  0
 12 44  1  0
 13 45  1  0
 16 46  1  0
 16 47  1  0
 16 48  1  0
 19 49  1  0
 19 50  1  0
 20 51  1  0
 22 52  1  0
 23 53  1  0
 24 54  1  0
 25 55  1  0
 27 56  1  0
 29 57  1  0
 33 58  1  0
 36 59  1  0
 36 60  1  0
M  CHG  1   5  -1
M  END
>  <EmbedRMS>  (6) 
0.08721638505634009

$$$$

     RDKit          3D

 60 63  0  0  0  0  0  0  0  0999 V2000
   10.2867   43.7698   33.7823 C   0  0  0  0  0  0  0  0  0  0  0  0
   11.4111   43.5817   34.3345 O   0  0  0  0  0  0  0  0  0  0  0  0
    9.3641   42.7313   33.6892 O   0  0  0  0  0  0  0  0  0  0  0  0
    9.8821   41.2347   34.2807 P   0  0  0  0  0  5  0  0  0  0  0  0
   10.3611   41.4744   35.8714 O   0  0  0  0  0  1  0  0  0  0  0  0
    9.9270   45.1415   33.3255 C   0  0  1  0  0  0  0  0  0  0  0  0
   11.0854   46.0271   33.4496 N   0  0  0  0  0  0  0  0  0  0  0  0
    9.2649   45.2063   31.9265 C   0  0  0  0  0  0  0  0  0  0  0  0
   10.0433   44.5418   30.8165 C   0  0  0  0  0  0  0  0  0  0  0  0
   11.1368   45.1882   30.2189 C   0  0  0  0  0  0  0  0  0  0  0  0
    9.6285   43.2985   30.3147 C   0  0  0  0  0  0  0  0  0  0  0  0
   11.8343   44.5763   29.1732 C   0  0  0  0  0  0  0  0  0  0  0  0
   10.3173   42.6930   29.2596 C   0  0  0  0  0  0  0  0  0  0  0  0
   11.4390   43.3236   28.6907 C   0  0  0  0  0  0  0  0  0  0  0  0
   12.1806   42.7435   27.6510 O   0  0  0  0  0  0  0  0  0  0  0  0
   11.9123   41.4614   27.0925 C   0  0  0  0  0  0  0  0  0  0  0  0
    8.8045   40.1920   34.2080 O   0  0  0  0  0  0  0  0  0  0  0  0
   11.2367   40.7796   33.3749 O   0  0  0  0  0  0  0  0  0  0  0  0
   10.9268   40.6830   32.0000 C   0  0  0  0  0  0  0  0  0  0  0  0
   11.5211   39.3766   31.4414 C   0  0  0  0  0  0  0  0  0  0  0  0
   12.7518   39.0842   32.0741 O   0  0  0  0  0  0  0  0  0  0  0  0
   10.6080   38.1862   31.6665 C   0  0  0  0  0  0  0  0  0  0  0  0
   12.9380   37.6787   32.0287 C   0  0  0  0  0  0  0  0  0  0  0  0
    9.6417   38.0911   30.6478 O   0  0  0  0  0  0  0  0  0  0  0  0
   11.5786   37.0132   31.7046 C   0  0  0  0  0  0  0  0  0  0  0  0
   13.4914   37.2168   33.3239 N   0  0  0  0  0  0  0  0  0  0  0  0
   11.6112   36.3390   30.4672 O   0  0  0  0  0  0  0  0  0  0  0  0
   14.4768   36.3265   33.5732 C   0  0  0  0  0  0  0  0  0  0  0  0
   13.1184   37.6310   34.5688 C   0  0  0  0  0  0  0  0  0  0  0  0
   15.2069   35.6133   32.6743 N   0  0  0  0  0  0  0  0  0  0  0  0
   14.6737   36.2271   34.9186 C   0  0  0  0  0  0  0  0  0  0  0  0
   13.8228   37.0454   35.5785 N   0  0  0  0  0  0  0  0  0  0  0  0
   16.1641   34.7590   33.1551 C   0  0  0  0  0  0  0  0  0  0  0  0
   15.6519   35.3490   35.4134 C   0  0  0  0  0  0  0  0  0  0  0  0
   16.3795   34.6307   34.5046 N   0  0  0  0  0  0  0  0  0  0  0  0
   15.9005   35.1932   36.8093 N   0  0  0  0  0  0  0  0  0  0  0  0
    9.1644   45.5083   34.0473 H   0  0  0  0  0  0  0  0  0  0  0  0
   11.8500   45.7040   32.8146 H   0  0  0  0  0  0  0  0  0  0  0  0
   10.8125   46.9931   33.1555 H   0  0  0  0  0  0  0  0  0  0  0  0
    8.2541   44.7470   31.9986 H   0  0  0  0  0  0  0  0  0  0  0  0
    9.0870   46.2696   31.6545 H   0  0  0  0  0  0  0  0  0  0  0  0
   11.4433   46.1714   30.5516 H   0  0  0  0  0  0  0  0  0  0  0  0
    8.7700   42.7943   30.7407 H   0  0  0  0  0  0  0  0  0  0  0  0
   12.6842   45.0809   28.7313 H   0  0  0  0  0  0  0  0  0  0  0  0
    9.9778   41.7293   28.9052 H   0  0  0  0  0  0  0  0  0  0  0  0
   12.6594   41.2470   26.3012 H   0  0  0  0  0  0  0  0  0  0  0  0
   10.8992   41.4471   26.6382 H   0  0  0  0  0  0  0  0  0  0  0  0
   11.9906   40.6792   27.8772 H   0  0  0  0  0  0  0  0  0  0  0  0
    9.8405   40.7317   31.7515 H   0  0  0  0  0  0  0  0  0  0  0  0
   11.4304   41.5305   31.4925 H   0  0  0  0  0  0  0  0  0  0  0  0
   11.7019   39.5042   30.3489 H   0  0  0  0  0  0  0  0  0  0  0  0
   10.1106   38.2764   32.6612 H   0  0  0  0  0  0  0  0  0  0  0  0
   13.6718   37.4547   31.2226 H   0  0  0  0  0  0  0  0  0  0  0  0
    9.0029   37.3880   30.9353 H   0  0  0  0  0  0  0  0  0  0  0  0
   11.2697   36.3047   32.5088 H   0  0  0  0  0  0  0  0  0  0  0  0
   12.1415   35.5128   30.6138 H   0  0  0  0  0  0  0  0  0  0  0  0
   12.3361   38.3585   34.7439 H   0  0  0  0  0  0  0  0  0  0  0  0
   16.7576   34.1784   32.4624 H   0  0  0  0  0  0  0  0  0  0  0  0
   15.3532   35.7355   37.5141 H   0  0  0  0  0  0  0  0  0  0  0  0
   16.6364   34.5314   37.1419 H   0  0  0  0  0  0  0  0  0  0  0  0
  1  2  2  0
  1  3  1  0
  3  4  1  0
  4  5  1  0
  6  1  1  0
  7  6  1  0
  6  8  1  0
  8  9  1  0
  9 10  2  0
 11  9  1  0
 10 12  1  0
 13 11  2  0
 12 14  2  0
 14 13  1  0
 14 15  1  0
 15 16  1  0
  4 17  2  0
  4 18  1  0
 19 18  1  0
 19 20  1  0
 20 21  1  0
 20 22  1  0
 21 23  1  0
 22 24  1  0
 22 25  1  0
 25 23  1  0
 23 26  1  0
 25 27  1  0
 28 26  1  0
 29 26  1  0
 30 28  2  0
 28 31  1  0
 32 29  2  0
 33 30  1  0
 31 34  2  0
 31 32  1  0
 35 33  2  0
 35 34  1  0
 34 36  1  0
  6 37  1  1
  7 38  1  0
  7 39  1  0
  8 40  1  0
  8 41  1  0
 10 42  1  0
 11 43  1  0
 12 44  1  0
 13 45  1  0
 16 46  1  0
 16 47  1  0
 16 48  1  0
 19 49  1  0
 19 50  1  0
 20 51  1  0
 22 52  1  0
 23 53  1  0
 24 54  1  0
 25 55  1  0
 27 56  1  0
 29 57  1  0
 33 58  1  0
 36 59  1  0
 36 60  1  0
M  CHG  1   5  -1
M  END
>  <EmbedRMS>  (7) 
0.09278983270522567

$$$$

     RDKit          3D

 60 63  0  0  0  0  0  0  0  0999 V2000
   10.2903   43.7683   33.8032 C   0  0  0  0  0  0  0  0  0  0  0  0
   11.4117   43.5808   34.3603 O   0  0  0  0  0  0  0  0  0  0  0  0
    9.3641   42.7329   33.7099 O   0  0  0  0  0  0  0  0  0  0  0  0
    9.8840   41.2334   34.2858 P   0  0  0  0  0  5  0  0  0  0  0  0
   10.3668   41.4655   35.8759 O   0  0  0  0  0  1  0  0  0  0  0  0
    9.9696   45.1050   33.2283 C   0  0  1  0  0  0  0  0  0  0  0  0
   11.0569   46.0521   33.4894 N   0  0  0  0  0  0  0  0  0  0  0  0
    9.7164   44.9860   31.7146 C   0  0  0  0  0  0  0  0  0  0  0  0
    9.2975   46.3071   31.1223 C   0  0  0  0  0  0  0  0  0  0  0  0
   10.2452   47.1492   30.5202 C   0  0  0  0  0  0  0  0  0  0  0  0
    7.9616   46.7277   31.2085 C   0  0  0  0  0  0  0  0  0  0  0  0
    9.8595   48.3867   29.9964 C   0  0  0  0  0  0  0  0  0  0  0  0
    7.5764   47.9648   30.6844 C   0  0  0  0  0  0  0  0  0  0  0  0
    8.5167   48.8034   30.0746 C   0  0  0  0  0  0  0  0  0  0  0  0
    8.0798   50.0348   29.5642 O   0  0  0  0  0  0  0  0  0  0  0  0
    8.9249   50.9838   28.9218 C   0  0  0  0  0  0  0  0  0  0  0  0
    8.8066   40.1905   34.2089 O   0  0  0  0  0  0  0  0  0  0  0  0
   11.2356   40.7927   33.3671 O   0  0  0  0  0  0  0  0  0  0  0  0
   10.9121   40.6870   31.9947 C   0  0  0  0  0  0  0  0  0  0  0  0
   11.5163   39.3804   31.4412 C   0  0  0  0  0  0  0  0  0  0  0  0
   12.7482   39.0893   32.0767 O   0  0  0  0  0  0  0  0  0  0  0  0
   10.6048   38.1880   31.6659 C   0  0  0  0  0  0  0  0  0  0  0  0
   12.9410   37.6834   32.0279 C   0  0  0  0  0  0  0  0  0  0  0  0
    9.6357   38.0932   30.6501 O   0  0  0  0  0  0  0  0  0  0  0  0
   11.5826   37.0183   31.6937 C   0  0  0  0  0  0  0  0  0  0  0  0
   13.4908   37.2179   33.3239 N   0  0  0  0  0  0  0  0  0  0  0  0
   11.6141   36.3183   30.4676 O   0  0  0  0  0  0  0  0  0  0  0  0
   14.4762   36.3271   33.5733 C   0  0  0  0  0  0  0  0  0  0  0  0
   13.1179   37.6318   34.5689 C   0  0  0  0  0  0  0  0  0  0  0  0
   15.2066   35.6141   32.6743 N   0  0  0  0  0  0  0  0  0  0  0  0
   14.6731   36.2273   34.9186 C   0  0  0  0  0  0  0  0  0  0  0  0
   13.8223   37.0456   35.5785 N   0  0  0  0  0  0  0  0  0  0  0  0
   16.1638   34.7596   33.1550 C   0  0  0  0  0  0  0  0  0  0  0  0
   15.6515   35.3491   35.4134 C   0  0  0  0  0  0  0  0  0  0  0  0
   16.3792   34.6310   34.5045 N   0  0  0  0  0  0  0  0  0  0  0  0
   15.9002   35.1933   36.8092 N   0  0  0  0  0  0  0  0  0  0  0  0
    9.0440   45.4767   33.7210 H   0  0  0  0  0  0  0  0  0  0  0  0
   11.1829   46.1618   34.5225 H   0  0  0  0  0  0  0  0  0  0  0  0
   11.9530   45.6972   33.0806 H   0  0  0  0  0  0  0  0  0  0  0  0
   10.6322   44.6101   31.2059 H   0  0  0  0  0  0  0  0  0  0  0  0
    8.9147   44.2379   31.5255 H   0  0  0  0  0  0  0  0  0  0  0  0
   11.2839   46.8485   30.4584 H   0  0  0  0  0  0  0  0  0  0  0  0
    7.2193   46.0977   31.6829 H   0  0  0  0  0  0  0  0  0  0  0  0
   10.6123   49.0119   29.5360 H   0  0  0  0  0  0  0  0  0  0  0  0
    6.5417   48.2754   30.7548 H   0  0  0  0  0  0  0  0  0  0  0  0
    9.3809   50.5359   28.0136 H   0  0  0  0  0  0  0  0  0  0  0  0
    8.3191   51.8622   28.6188 H   0  0  0  0  0  0  0  0  0  0  0  0
    9.7185   51.3231   29.6206 H   0  0  0  0  0  0  0  0  0  0  0  0
   11.3829   41.5448   31.4684 H   0  0  0  0  0  0  0  0  0  0  0  0
    9.8219   40.7217   31.7588 H   0  0  0  0  0  0  0  0  0  0  0  0
   11.6990   39.5073   30.3491 H   0  0  0  0  0  0  0  0  0  0  0  0
   10.1116   38.2724   32.6631 H   0  0  0  0  0  0  0  0  0  0  0  0
   13.6814   37.4642   31.2269 H   0  0  0  0  0  0  0  0  0  0  0  0
    9.0036   37.3829   30.9346 H   0  0  0  0  0  0  0  0  0  0  0  0
   11.2846   36.3045   32.4929 H   0  0  0  0  0  0  0  0  0  0  0  0
   11.8849   36.9593   29.7589 H   0  0  0  0  0  0  0  0  0  0  0  0
   12.3363   38.3600   34.7442 H   0  0  0  0  0  0  0  0  0  0  0  0
   16.7573   34.1791   32.4622 H   0  0  0  0  0  0  0  0  0  0  0  0
   16.6362   34.5316   37.1417 H   0  0  0  0  0  0  0  0  0  0  0  0
   15.3529   35.7355   37.5141 H   0  0  0  0  0  0  0  0  0  0  0  0
  1  2  2  0
  1  3  1  0
  3  4  1  0
  4  5  1  0
  6  1  1  0
  7  6  1  0
  6  8  1  0
  8  9  1  0
  9 10  2  0
 11  9  1  0
 10 12  1  0
 13 11  2  0
 12 14  2  0
 14 13  1  0
 14 15  1  0
 15 16  1  0
  4 17  2  0
  4 18  1  0
 19 18  1  0
 19 20  1  0
 20 21  1  0
 20 22  1  0
 21 23  1  0
 22 24  1  0
 22 25  1  0
 25 23  1  0
 23 26  1  0
 25 27  1  0
 28 26  1  0
 29 26  1  0
 30 28  2  0
 28 31  1  0
 32 29  2  0
 33 30  1  0
 31 34  2  0
 31 32  1  0
 35 33  2  0
 35 34  1  0
 34 36  1  0
  6 37  1  1
  7 38  1  0
  7 39  1  0
  8 40  1  0
  8 41  1  0
 10 42  1  0
 11 43  1  0
 12 44  1  0
 13 45  1  0
 16 46  1  0
 16 47  1  0
 16 48  1  0
 19 49  1  0
 19 50  1  0
 20 51  1  0
 22 52  1  0
 23 53  1  0
 24 54  1  0
 25 55  1  0
 27 56  1  0
 29 57  1  0
 33 58  1  0
 36 59  1  0
 36 60  1  0
M  CHG  1   5  -1
M  END
>  <EmbedRMS>  (8) 
0.0882768498856262

$$$$

     RDKit          3D

 60 63  0  0  0  0  0  0  0  0999 V2000
   10.2941   43.7720   33.7964 C   0  0  0  0  0  0  0  0  0  0  0  0
   11.4140   43.5898   34.3580 O   0  0  0  0  0  0  0  0  0  0  0  0
    9.3673   42.7357   33.7086 O   0  0  0  0  0  0  0  0  0  0  0  0
    9.8872   41.2359   34.2845 P   0  0  0  0  0  5  0  0  0  0  0  0
   10.3696   41.4673   35.8748 O   0  0  0  0  0  1  0  0  0  0  0  0
    9.9759   45.1033   33.2101 C   0  0  1  0  0  0  0  0  0  0  0  0
   11.0440   46.0544   33.5250 N   0  0  0  0  0  0  0  0  0  0  0  0
    9.7482   45.0013   31.6780 C   0  0  0  0  0  0  0  0  0  0  0  0
   10.9937   45.2144   30.8390 C   0  0  0  0  0  0  0  0  0  0  0  0
   11.0097   46.2071   29.8447 C   0  0  0  0  0  0  0  0  0  0  0  0
   12.1331   44.4123   31.0151 C   0  0  0  0  0  0  0  0  0  0  0  0
   12.1440   46.3975   29.0506 C   0  0  0  0  0  0  0  0  0  0  0  0
   13.2672   44.6028   30.2208 C   0  0  0  0  0  0  0  0  0  0  0  0
   13.2797   45.6007   29.2291 C   0  0  0  0  0  0  0  0  0  0  0  0
   14.3924   45.8308   28.4063 O   0  0  0  0  0  0  0  0  0  0  0  0
   15.6101   45.0964   28.4778 C   0  0  0  0  0  0  0  0  0  0  0  0
    8.8094   40.1931   34.2079 O   0  0  0  0  0  0  0  0  0  0  0  0
   11.2382   40.7957   33.3638 O   0  0  0  0  0  0  0  0  0  0  0  0
   10.9106   40.6821   31.9926 C   0  0  0  0  0  0  0  0  0  0  0  0
   11.5141   39.3760   31.4401 C   0  0  0  0  0  0  0  0  0  0  0  0
   12.7451   39.0854   32.0745 O   0  0  0  0  0  0  0  0  0  0  0  0
   10.6021   38.1850   31.6671 C   0  0  0  0  0  0  0  0  0  0  0  0
   12.9333   37.6793   32.0282 C   0  0  0  0  0  0  0  0  0  0  0  0
    9.6390   38.0740   30.6458 O   0  0  0  0  0  0  0  0  0  0  0  0
   11.5746   37.0131   31.7055 C   0  0  0  0  0  0  0  0  0  0  0  0
   13.4904   37.2177   33.3232 N   0  0  0  0  0  0  0  0  0  0  0  0
   11.6223   36.3366   30.4687 O   0  0  0  0  0  0  0  0  0  0  0  0
   14.4762   36.3273   33.5725 C   0  0  0  0  0  0  0  0  0  0  0  0
   13.1179   37.6316   34.5685 C   0  0  0  0  0  0  0  0  0  0  0  0
   15.2063   35.6139   32.6738 N   0  0  0  0  0  0  0  0  0  0  0  0
   14.6734   36.2277   34.9180 C   0  0  0  0  0  0  0  0  0  0  0  0
   13.8226   37.0459   35.5780 N   0  0  0  0  0  0  0  0  0  0  0  0
   16.1636   34.7594   33.1546 C   0  0  0  0  0  0  0  0  0  0  0  0
   15.6516   35.3494   35.4129 C   0  0  0  0  0  0  0  0  0  0  0  0
   16.3791   34.6311   34.5041 N   0  0  0  0  0  0  0  0  0  0  0  0
   15.9002   35.1935   36.8088 N   0  0  0  0  0  0  0  0  0  0  0  0
    9.0288   45.4512   33.6816 H   0  0  0  0  0  0  0  0  0  0  0  0
   10.7869   46.9814   33.1136 H   0  0  0  0  0  0  0  0  0  0  0  0
   11.0606   46.2026   34.5610 H   0  0  0  0  0  0  0  0  0  0  0  0
    9.3003   44.0200   31.4078 H   0  0  0  0  0  0  0  0  0  0  0  0
    8.9855   45.7632   31.4043 H   0  0  0  0  0  0  0  0  0  0  0  0
   10.1439   46.8365   29.6805 H   0  0  0  0  0  0  0  0  0  0  0  0
   12.1558   43.6483   31.7760 H   0  0  0  0  0  0  0  0  0  0  0  0
   12.1399   47.1681   28.2900 H   0  0  0  0  0  0  0  0  0  0  0  0
   14.1284   43.9701   30.3873 H   0  0  0  0  0  0  0  0  0  0  0  0
   16.3143   45.4868   27.7149 H   0  0  0  0  0  0  0  0  0  0  0  0
   15.4207   44.0219   28.2704 H   0  0  0  0  0  0  0  0  0  0  0  0
   16.0703   45.2169   29.4813 H   0  0  0  0  0  0  0  0  0  0  0  0
   11.3815   41.5282   31.4557 H   0  0  0  0  0  0  0  0  0  0  0  0
    9.8211   40.7258   31.7592 H   0  0  0  0  0  0  0  0  0  0  0  0
   11.6957   39.4992   30.3473 H   0  0  0  0  0  0  0  0  0  0  0  0
   10.1082   38.2578   32.6658 H   0  0  0  0  0  0  0  0  0  0  0  0
   13.6659   37.4554   31.2210 H   0  0  0  0  0  0  0  0  0  0  0  0
    8.8912   38.6787   30.8900 H   0  0  0  0  0  0  0  0  0  0  0  0
   11.2864   36.3026   32.5167 H   0  0  0  0  0  0  0  0  0  0  0  0
   10.8546   35.7071   30.4579 H   0  0  0  0  0  0  0  0  0  0  0  0
   12.3353   38.3587   34.7441 H   0  0  0  0  0  0  0  0  0  0  0  0
   16.7570   34.1788   32.4619 H   0  0  0  0  0  0  0  0  0  0  0  0
   15.3529   35.7358   37.5137 H   0  0  0  0  0  0  0  0  0  0  0  0
   16.6360   34.5316   37.1414 H   0  0  0  0  0  0  0  0  0  0  0  0
  1  2  2  0
  1  3  1  0
  3  4  1  0
  4  5  1  0
  6  1  1  0
  7  6  1  0
  6  8  1  0
  8  9  1  0
  9 10  2  0
 11  9  1  0
 10 12  1  0
 13 11  2  0
 12 14  2  0
 14 13  1  0
 14 15  1  0
 15 16  1  0
  4 17  2  0
  4 18  1  0
 19 18  1  0
 19 20  1  0
 20 21  1  0
 20 22  1  0
 21 23  1  0
 22 24  1  0
 22 25  1  0
 25 23  1  0
 23 26  1  0
 25 27  1  0
 28 26  1  0
 29 26  1  0
 30 28  2  0
 28 31  1  0
 32 29  2  0
 33 30  1  0
 31 34  2  0
 31 32  1  0
 35 33  2  0
 35 34  1  0
 34 36  1  0
  6 37  1  1
  7 38  1  0
  7 39  1  0
  8 40  1  0
  8 41  1  0
 10 42  1  0
 11 43  1  0
 12 44  1  0
 13 45  1  0
 16 46  1  0
 16 47  1  0
 16 48  1  0
 19 49  1  0
 19 50  1  0
 20 51  1  0
 22 52  1  0
 23 53  1  0
 24 54  1  0
 25 55  1  0
 27 56  1  0
 29 57  1  0
 33 58  1  0
 36 59  1  0
 36 60  1  0
M  CHG  1   5  -1
M  END
>  <EmbedRMS>  (9) 
0.09022647904682642

$$$$

     RDKit          3D

 60 63  0  0  0  0  0  0  0  0999 V2000
   10.2890   43.7708   33.7903 C   0  0  0  0  0  0  0  0  0  0  0  0
   11.4141   43.5855   34.3415 O   0  0  0  0  0  0  0  0  0  0  0  0
    9.3633   42.7338   33.7098 O   0  0  0  0  0  0  0  0  0  0  0  0
    9.8849   41.2348   34.2858 P   0  0  0  0  0  5  0  0  0  0  0  0
   10.3679   41.4679   35.8756 O   0  0  0  0  0  1  0  0  0  0  0  0
    9.9601   45.1142   33.2289 C   0  0  1  0  0  0  0  0  0  0  0  0
   11.0608   46.0372   33.5110 N   0  0  0  0  0  0  0  0  0  0  0  0
    9.7250   45.0483   31.7023 C   0  0  0  0  0  0  0  0  0  0  0  0
    8.5134   44.2299   31.3221 C   0  0  0  0  0  0  0  0  0  0  0  0
    7.2287   44.6280   31.7258 C   0  0  0  0  0  0  0  0  0  0  0  0
    8.6566   43.0689   30.5467 C   0  0  0  0  0  0  0  0  0  0  0  0
    6.1109   43.8580   31.3907 C   0  0  0  0  0  0  0  0  0  0  0  0
    7.5398   42.2979   30.2145 C   0  0  0  0  0  0  0  0  0  0  0  0
    6.2611   42.6801   30.6343 C   0  0  0  0  0  0  0  0  0  0  0  0
    5.1727   41.8698   30.2789 O   0  0  0  0  0  0  0  0  0  0  0  0
    3.8213   42.1353   30.6403 C   0  0  0  0  0  0  0  0  0  0  0  0
    8.8072   40.1922   34.2098 O   0  0  0  0  0  0  0  0  0  0  0  0
   11.2364   40.7911   33.3677 O   0  0  0  0  0  0  0  0  0  0  0  0
   10.9125   40.6824   31.9958 C   0  0  0  0  0  0  0  0  0  0  0  0
   11.5174   39.3771   31.4409 C   0  0  0  0  0  0  0  0  0  0  0  0
   12.7477   39.0868   32.0763 O   0  0  0  0  0  0  0  0  0  0  0  0
   10.6069   38.1847   31.6659 C   0  0  0  0  0  0  0  0  0  0  0  0
   12.9372   37.6810   32.0292 C   0  0  0  0  0  0  0  0  0  0  0  0
    9.6406   38.0887   30.6474 O   0  0  0  0  0  0  0  0  0  0  0  0
   11.5790   37.0132   31.7044 C   0  0  0  0  0  0  0  0  0  0  0  0
   13.4914   37.2180   33.3240 N   0  0  0  0  0  0  0  0  0  0  0  0
   11.6126   36.3390   30.4671 O   0  0  0  0  0  0  0  0  0  0  0  0
   14.4766   36.3271   33.5731 C   0  0  0  0  0  0  0  0  0  0  0  0
   13.1184   37.6316   34.5691 C   0  0  0  0  0  0  0  0  0  0  0  0
   15.2066   35.6139   32.6741 N   0  0  0  0  0  0  0  0  0  0  0  0
   14.6735   36.2273   34.9185 C   0  0  0  0  0  0  0  0  0  0  0  0
   13.8228   37.0455   35.5785 N   0  0  0  0  0  0  0  0  0  0  0  0
   16.1638   34.7593   33.1548 C   0  0  0  0  0  0  0  0  0  0  0  0
   15.6517   35.3490   35.4132 C   0  0  0  0  0  0  0  0  0  0  0  0
   16.3793   34.6308   34.5043 N   0  0  0  0  0  0  0  0  0  0  0  0
   15.9004   35.1932   36.8091 N   0  0  0  0  0  0  0  0  0  0  0  0
    9.0408   45.4883   33.7322 H   0  0  0  0  0  0  0  0  0  0  0  0
   11.1225   46.1722   34.5473 H   0  0  0  0  0  0  0  0  0  0  0  0
   10.8139   46.9779   33.1254 H   0  0  0  0  0  0  0  0  0  0  0  0
   10.6399   44.6503   31.2092 H   0  0  0  0  0  0  0  0  0  0  0  0
    9.5726   46.0773   31.3099 H   0  0  0  0  0  0  0  0  0  0  0  0
    7.0917   45.5337   32.3031 H   0  0  0  0  0  0  0  0  0  0  0  0
    9.6329   42.7571   30.1998 H   0  0  0  0  0  0  0  0  0  0  0  0
    5.1363   44.1870   31.7241 H   0  0  0  0  0  0  0  0  0  0  0  0
    7.6687   41.3980   29.6263 H   0  0  0  0  0  0  0  0  0  0  0  0
    3.4962   43.1079   30.2142 H   0  0  0  0  0  0  0  0  0  0  0  0
    3.7173   42.1482   31.7459 H   0  0  0  0  0  0  0  0  0  0  0  0
    3.1726   41.3338   30.2316 H   0  0  0  0  0  0  0  0  0  0  0  0
    9.8219   40.7088   31.7636 H   0  0  0  0  0  0  0  0  0  0  0  0
   11.3826   41.5397   31.4689 H   0  0  0  0  0  0  0  0  0  0  0  0
   11.7000   39.5031   30.3486 H   0  0  0  0  0  0  0  0  0  0  0  0
   10.1094   38.2740   32.6608 H   0  0  0  0  0  0  0  0  0  0  0  0
   13.6715   37.4594   31.2229 H   0  0  0  0  0  0  0  0  0  0  0  0
    9.0014   37.3862   30.9357 H   0  0  0  0  0  0  0  0  0  0  0  0
   11.2708   36.3044   32.5085 H   0  0  0  0  0  0  0  0  0  0  0  0
   12.1447   35.5139   30.6136 H   0  0  0  0  0  0  0  0  0  0  0  0
   12.3361   38.3591   34.7445 H   0  0  0  0  0  0  0  0  0  0  0  0
   16.7571   34.1787   32.4620 H   0  0  0  0  0  0  0  0  0  0  0  0
   16.6363   34.5314   37.1416 H   0  0  0  0  0  0  0  0  0  0  0  0
   15.3532   35.7355   37.5139 H   0  0  0  0  0  0  0  0  0  0  0  0
  1  2  2  0
  1  3  1  0
  3  4  1  0
  4  5  1  0
  6  1  1  0
  7  6  1  0
  6  8  1  0
  8  9  1  0
  9 10  2  0
 11  9  1  0
 10 12  1  0
 13 11  2  0
 12 14  2  0
 14 13  1  0
 14 15  1  0
 15 16  1  0
  4 17  2  0
  4 18  1  0
 19 18  1  0
 19 20  1  0
 20 21  1  0
 20 22  1  0
 21 23  1  0
 22 24  1  0
 22 25  1  0
 25 23  1  0
 23 26  1  0
 25 27  1  0
 28 26  1  0
 29 26  1  0
 30 28  2  0
 28 31  1  0
 32 29  2  0
 33 30  1  0
 31 34  2  0
 31 32  1  0
 35 33  2  0
 35 34  1  0
 34 36  1  0
  6 37  1  1
  7 38  1  0
  7 39  1  0
  8 40  1  0
  8 41  1  0
 10 42  1  0
 11 43  1  0
 12 44  1  0
 13 45  1  0
 16 46  1  0
 16 47  1  0
 16 48  1  0
 19 49  1  0
 19 50  1  0
 20 51  1  0
 22 52  1  0
 23 53  1  0
 24 54  1  0
 25 55  1  0
 27 56  1  0
 29 57  1  0
 33 58  1  0
 36 59  1  0
 36 60  1  0
M  CHG  1   5  -1
M  END
>  <EmbedRMS>  (10) 
0.08931144377083117

$$$$

     RDKit          3D

 60 63  0  0  0  0  0  0  0  0999 V2000
   10.2904   43.7682   33.8031 C   0  0  0  0  0  0  0  0  0  0  0  0
   11.4118   43.5807   34.3602 O   0  0  0  0  0  0  0  0  0  0  0  0
    9.3643   42.7327   33.7095 O   0  0  0  0  0  0  0  0  0  0  0  0
    9.8839   41.2332   34.2858 P   0  0  0  0  0  5  0  0  0  0  0  0
   10.3665   41.4656   35.8760 O   0  0  0  0  0  1  0  0  0  0  0  0
    9.9696   45.1051   33.2286 C   0  0  1  0  0  0  0  0  0  0  0  0
   11.0571   46.0521   33.4894 N   0  0  0  0  0  0  0  0  0  0  0  0
    9.7157   44.9864   31.7149 C   0  0  0  0  0  0  0  0  0  0  0  0
    9.2984   46.3082   31.1229 C   0  0  0  0  0  0  0  0  0  0  0  0
   10.2466   47.1479   30.5185 C   0  0  0  0  0  0  0  0  0  0  0  0
    7.9636   46.7319   31.2120 C   0  0  0  0  0  0  0  0  0  0  0  0
    9.8610   48.3855   29.9958 C   0  0  0  0  0  0  0  0  0  0  0  0
    7.5783   47.9700   30.6890 C   0  0  0  0  0  0  0  0  0  0  0  0
    8.5287   48.8075   30.0742 C   0  0  0  0  0  0  0  0  0  0  0  0
    8.1928   50.0581   29.5347 O   0  0  0  0  0  0  0  0  0  0  0  0
    6.8811   50.6120   29.5459 C   0  0  0  0  0  0  0  0  0  0  0  0
    8.8066   40.1904   34.2089 O   0  0  0  0  0  0  0  0  0  0  0  0
   11.2358   40.7916   33.3679 O   0  0  0  0  0  0  0  0  0  0  0  0
   10.9138   40.6891   31.9950 C   0  0  0  0  0  0  0  0  0  0  0  0
   11.5254   39.3878   31.4368 C   0  0  0  0  0  0  0  0  0  0  0  0
   12.7486   39.0899   32.0823 O   0  0  0  0  0  0  0  0  0  0  0  0
   10.6120   38.1896   31.6461 C   0  0  0  0  0  0  0  0  0  0  0  0
   12.9371   37.6833   32.0302 C   0  0  0  0  0  0  0  0  0  0  0  0
    9.6149   38.0840   30.6536 O   0  0  0  0  0  0  0  0  0  0  0  0
   11.5792   37.0140   31.7014 C   0  0  0  0  0  0  0  0  0  0  0  0
   13.4906   37.2172   33.3242 N   0  0  0  0  0  0  0  0  0  0  0  0
   11.6217   36.3255   30.4726 O   0  0  0  0  0  0  0  0  0  0  0  0
   14.4763   36.3268   33.5730 C   0  0  0  0  0  0  0  0  0  0  0  0
   13.1181   37.6310   34.5694 C   0  0  0  0  0  0  0  0  0  0  0  0
   15.2065   35.6138   32.6739 N   0  0  0  0  0  0  0  0  0  0  0  0
   14.6735   36.2270   34.9184 C   0  0  0  0  0  0  0  0  0  0  0  0
   13.8228   37.0451   35.5787 N   0  0  0  0  0  0  0  0  0  0  0  0
   16.1638   34.7594   33.1546 C   0  0  0  0  0  0  0  0  0  0  0  0
   15.6518   35.3489   35.4131 C   0  0  0  0  0  0  0  0  0  0  0  0
   16.3794   34.6308   34.5041 N   0  0  0  0  0  0  0  0  0  0  0  0
   15.9006   35.1931   36.8089 N   0  0  0  0  0  0  0  0  0  0  0  0
    9.0442   45.4768   33.7216 H   0  0  0  0  0  0  0  0  0  0  0  0
   11.9530   45.6970   33.0802 H   0  0  0  0  0  0  0  0  0  0  0  0
   11.1834   46.1615   34.5225 H   0  0  0  0  0  0  0  0  0  0  0  0
    8.9128   44.2395   31.5261 H   0  0  0  0  0  0  0  0  0  0  0  0
   10.6308   44.6093   31.2059 H   0  0  0  0  0  0  0  0  0  0  0  0
   11.2846   46.8456   30.4539 H   0  0  0  0  0  0  0  0  0  0  0  0
    7.2215   46.1031   31.6885 H   0  0  0  0  0  0  0  0  0  0  0  0
   10.6022   49.0222   29.5296 H   0  0  0  0  0  0  0  0  0  0  0  0
    6.5417   48.2670   30.7704 H   0  0  0  0  0  0  0  0  0  0  0  0
    6.9031   51.6060   29.0543 H   0  0  0  0  0  0  0  0  0  0  0  0
    6.1838   49.9536   28.9859 H   0  0  0  0  0  0  0  0  0  0  0  0
    6.5296   50.7401   30.5915 H   0  0  0  0  0  0  0  0  0  0  0  0
    9.8236   40.7186   31.7588 H   0  0  0  0  0  0  0  0  0  0  0  0
   11.3800   41.5517   31.4724 H   0  0  0  0  0  0  0  0  0  0  0  0
   11.7286   39.5296   30.3507 H   0  0  0  0  0  0  0  0  0  0  0  0
   10.1135   38.2720   32.6378 H   0  0  0  0  0  0  0  0  0  0  0  0
   13.6724   37.4646   31.2240 H   0  0  0  0  0  0  0  0  0  0  0  0
   10.0536   38.1090   29.7638 H   0  0  0  0  0  0  0  0  0  0  0  0
   11.2645   36.3139   32.5108 H   0  0  0  0  0  0  0  0  0  0  0  0
   12.1552   35.5036   30.6317 H   0  0  0  0  0  0  0  0  0  0  0  0
   12.3362   38.3587   34.7451 H   0  0  0  0  0  0  0  0  0  0  0  0
   16.7572   34.1789   32.4618 H   0  0  0  0  0  0  0  0  0  0  0  0
   16.6366   34.5314   37.1414 H   0  0  0  0  0  0  0  0  0  0  0  0
   15.3533   35.7353   37.5139 H   0  0  0  0  0  0  0  0  0  0  0  0
  1  2  2  0
  1  3  1  0
  3  4  1  0
  4  5  1  0
  6  1  1  0
  7  6  1  0
  6  8  1  0
  8  9  1  0
  9 10  2  0
 11  9  1  0
 10 12  1  0
 13 11  2  0
 12 14  2  0
 14 13  1  0
 14 15  1  0
 15 16  1  0
  4 17  2  0
  4 18  1  0
 19 18  1  0
 19 20  1  0
 20 21  1  0
 20 22  1  0
 21 23  1  0
 22 24  1  0
 22 25  1  0
 25 23  1  0
 23 26  1  0
 25 27  1  0
 28 26  1  0
 29 26  1  0
 30 28  2  0
 28 31  1  0
 32 29  2  0
 33 30  1  0
 31 34  2  0
 31 32  1  0
 35 33  2  0
 35 34  1  0
 34 36  1  0
  6 37  1  1
  7 38  1  0
  7 39  1  0
  8 40  1  0
  8 41  1  0
 10 42  1  0
 11 43  1  0
 12 44  1  0
 13 45  1  0
 16 46  1  0
 16 47  1  0
 16 48  1  0
 19 49  1  0
 19 50  1  0
 20 51  1  0
 22 52  1  0
 23 53  1  0
 24 54  1  0
 25 55  1  0
 27 56  1  0
 29 57  1  0
 33 58  1  0
 36 59  1  0
 36 60  1  0
M  CHG  1   5  -1
M  END
>  <EmbedRMS>  (11) 
0.08833753487666766

$$$$

     RDKit          3D

 60 63  0  0  0  0  0  0  0  0999 V2000
   10.2896   43.7707   33.7895 C   0  0  0  0  0  0  0  0  0  0  0  0
   11.4145   43.5857   34.3411 O   0  0  0  0  0  0  0  0  0  0  0  0
    9.3637   42.7336   33.7100 O   0  0  0  0  0  0  0  0  0  0  0  0
    9.8849   41.2349   34.2868 P   0  0  0  0  0  5  0  0  0  0  0  0
   10.3671   41.4683   35.8767 O   0  0  0  0  0  1  0  0  0  0  0  0
    9.9608   45.1136   33.2265 C   0  0  1  0  0  0  0  0  0  0  0  0
   11.0590   46.0382   33.5133 N   0  0  0  0  0  0  0  0  0  0  0  0
    9.7326   45.0497   31.6985 C   0  0  0  0  0  0  0  0  0  0  0  0
    8.5455   44.2013   31.3069 C   0  0  0  0  0  0  0  0  0  0  0  0
    8.7237   43.0570   30.5139 C   0  0  0  0  0  0  0  0  0  0  0  0
    7.2499   44.5517   31.7195 C   0  0  0  0  0  0  0  0  0  0  0  0
    7.6332   42.2510   30.1766 C   0  0  0  0  0  0  0  0  0  0  0  0
    6.1586   43.7475   31.3787 C   0  0  0  0  0  0  0  0  0  0  0  0
    6.3389   42.5895   30.6138 C   0  0  0  0  0  0  0  0  0  0  0  0
    5.2141   41.8085   30.3096 O   0  0  0  0  0  0  0  0  0  0  0  0
    5.2548   40.6015   29.5553 C   0  0  0  0  0  0  0  0  0  0  0  0
    8.8072   40.1922   34.2102 O   0  0  0  0  0  0  0  0  0  0  0  0
   11.2369   40.7900   33.3706 O   0  0  0  0  0  0  0  0  0  0  0  0
   10.9155   40.6869   31.9982 C   0  0  0  0  0  0  0  0  0  0  0  0
   11.5252   39.3871   31.4380 C   0  0  0  0  0  0  0  0  0  0  0  0
   12.7488   39.0877   32.0809 O   0  0  0  0  0  0  0  0  0  0  0  0
   10.6100   38.1906   31.6473 C   0  0  0  0  0  0  0  0  0  0  0  0
   12.9348   37.6806   32.0293 C   0  0  0  0  0  0  0  0  0  0  0  0
    9.6125   38.0880   30.6548 O   0  0  0  0  0  0  0  0  0  0  0  0
   11.5766   37.0132   31.7023 C   0  0  0  0  0  0  0  0  0  0  0  0
   13.4900   37.2162   33.3237 N   0  0  0  0  0  0  0  0  0  0  0  0
   11.6320   36.3234   30.4737 O   0  0  0  0  0  0  0  0  0  0  0  0
   14.4762   36.3265   33.5728 C   0  0  0  0  0  0  0  0  0  0  0  0
   13.1179   37.6305   34.5689 C   0  0  0  0  0  0  0  0  0  0  0  0
   15.2065   35.6134   32.6739 N   0  0  0  0  0  0  0  0  0  0  0  0
   14.6736   36.2271   34.9182 C   0  0  0  0  0  0  0  0  0  0  0  0
   13.8228   37.0452   35.5784 N   0  0  0  0  0  0  0  0  0  0  0  0
   16.1640   34.7592   33.1547 C   0  0  0  0  0  0  0  0  0  0  0  0
   15.6519   35.3491   35.4131 C   0  0  0  0  0  0  0  0  0  0  0  0
   16.3795   34.6309   34.5042 N   0  0  0  0  0  0  0  0  0  0  0  0
   15.9005   35.1933   36.8089 N   0  0  0  0  0  0  0  0  0  0  0  0
    9.0385   45.4861   33.7254 H   0  0  0  0  0  0  0  0  0  0  0  0
   10.8129   46.9782   33.1256 H   0  0  0  0  0  0  0  0  0  0  0  0
   11.1155   46.1739   34.5498 H   0  0  0  0  0  0  0  0  0  0  0  0
    9.5553   46.0768   31.3117 H   0  0  0  0  0  0  0  0  0  0  0  0
   10.6600   44.6785   31.2080 H   0  0  0  0  0  0  0  0  0  0  0  0
    9.7087   42.7832   30.1592 H   0  0  0  0  0  0  0  0  0  0  0  0
    7.0841   45.4441   32.3096 H   0  0  0  0  0  0  0  0  0  0  0  0
    7.8078   41.3681   29.5769 H   0  0  0  0  0  0  0  0  0  0  0  0
    5.1668   44.0240   31.7134 H   0  0  0  0  0  0  0  0  0  0  0  0
    4.2280   40.1898   29.4742 H   0  0  0  0  0  0  0  0  0  0  0  0
    5.8987   39.8540   30.0655 H   0  0  0  0  0  0  0  0  0  0  0  0
    5.6390   40.8028   28.5330 H   0  0  0  0  0  0  0  0  0  0  0  0
   11.3839   41.5485   31.4769 H   0  0  0  0  0  0  0  0  0  0  0  0
    9.8253   40.7106   31.7645 H   0  0  0  0  0  0  0  0  0  0  0  0
   11.7267   39.5302   30.3518 H   0  0  0  0  0  0  0  0  0  0  0  0
   10.1119   38.2720   32.6392 H   0  0  0  0  0  0  0  0  0  0  0  0
   13.6686   37.4591   31.2225 H   0  0  0  0  0  0  0  0  0  0  0  0
   10.0510   38.1146   29.7648 H   0  0  0  0  0  0  0  0  0  0  0  0
   11.2802   36.3123   32.5190 H   0  0  0  0  0  0  0  0  0  0  0  0
   10.8617   35.6972   30.4634 H   0  0  0  0  0  0  0  0  0  0  0  0
   12.3355   38.3579   34.7445 H   0  0  0  0  0  0  0  0  0  0  0  0
   16.7575   34.1787   32.4620 H   0  0  0  0  0  0  0  0  0  0  0  0
   15.3532   35.7355   37.5138 H   0  0  0  0  0  0  0  0  0  0  0  0
   16.6364   34.5315   37.1415 H   0  0  0  0  0  0  0  0  0  0  0  0
  1  2  2  0
  1  3  1  0
  3  4  1  0
  4  5  1  0
  6  1  1  0
  7  6  1  0
  6  8  1  0
  8  9  1  0
  9 10  2  0
 11  9  1  0
 10 12  1  0
 13 11  2  0
 12 14  2  0
 14 13  1  0
 14 15  1  0
 15 16  1  0
  4 17  2  0
  4 18  1  0
 19 18  1  0
 19 20  1  0
 20 21  1  0
 20 22  1  0
 21 23  1  0
 22 24  1  0
 22 25  1  0
 25 23  1  0
 23 26  1  0
 25 27  1  0
 28 26  1  0
 29 26  1  0
 30 28  2  0
 28 31  1  0
 32 29  2  0
 33 30  1  0
 31 34  2  0
 31 32  1  0
 35 33  2  0
 35 34  1  0
 34 36  1  0
  6 37  1  1
  7 38  1  0
  7 39  1  0
  8 40  1  0
  8 41  1  0
 10 42  1  0
 11 43  1  0
 12 44  1  0
 13 45  1  0
 16 46  1  0
 16 47  1  0
 16 48  1  0
 19 49  1  0
 19 50  1  0
 20 51  1  0
 22 52  1  0
 23 53  1  0
 24 54  1  0
 25 55  1  0
 27 56  1  0
 29 57  1  0
 33 58  1  0
 36 59  1  0
 36 60  1  0
M  CHG  1   5  -1
M  END
>  <EmbedRMS>  (12) 
0.0887666101016196

$$$$

     RDKit          3D

 60 63  0  0  0  0  0  0  0  0999 V2000
   10.2928   43.7668   33.7911 C   0  0  0  0  0  0  0  0  0  0  0  0
   11.4140   43.5796   34.3490 O   0  0  0  0  0  0  0  0  0  0  0  0
    9.3648   42.7321   33.7098 O   0  0  0  0  0  0  0  0  0  0  0  0
    9.8843   41.2333   34.2872 P   0  0  0  0  0  5  0  0  0  0  0  0
   10.3656   41.4668   35.8774 O   0  0  0  0  0  1  0  0  0  0  0  0
    9.9658   45.1136   33.2317 C   0  0  1  0  0  0  0  0  0  0  0  0
   11.0544   46.0552   33.5013 N   0  0  0  0  0  0  0  0  0  0  0  0
    9.7047   45.0689   31.7108 C   0  0  0  0  0  0  0  0  0  0  0  0
    8.5053   44.2301   31.3376 C   0  0  0  0  0  0  0  0  0  0  0  0
    7.2176   44.5985   31.7584 C   0  0  0  0  0  0  0  0  0  0  0  0
    8.6660   43.0696   30.5646 C   0  0  0  0  0  0  0  0  0  0  0  0
    6.1159   43.7983   31.4425 C   0  0  0  0  0  0  0  0  0  0  0  0
    7.5653   42.2672   30.2530 C   0  0  0  0  0  0  0  0  0  0  0  0
    6.2785   42.6250   30.6968 C   0  0  0  0  0  0  0  0  0  0  0  0
    5.1443   41.8480   30.4189 O   0  0  0  0  0  0  0  0  0  0  0  0
    5.1677   40.6255   29.6890 C   0  0  0  0  0  0  0  0  0  0  0  0
    8.8066   40.1909   34.2092 O   0  0  0  0  0  0  0  0  0  0  0  0
   11.2375   40.7899   33.3720 O   0  0  0  0  0  0  0  0  0  0  0  0
   10.9178   40.6883   31.9992 C   0  0  0  0  0  0  0  0  0  0  0  0
   11.5174   39.3822   31.4424 C   0  0  0  0  0  0  0  0  0  0  0  0
   12.7495   39.0890   32.0761 O   0  0  0  0  0  0  0  0  0  0  0  0
   10.6033   38.1896   31.6657 C   0  0  0  0  0  0  0  0  0  0  0  0
   12.9399   37.6832   32.0277 C   0  0  0  0  0  0  0  0  0  0  0  0
    9.6375   38.0791   30.6467 O   0  0  0  0  0  0  0  0  0  0  0  0
   11.5802   37.0202   31.6935 C   0  0  0  0  0  0  0  0  0  0  0  0
   13.4900   37.2174   33.3237 N   0  0  0  0  0  0  0  0  0  0  0  0
   11.6117   36.3193   30.4677 O   0  0  0  0  0  0  0  0  0  0  0  0
   14.4758   36.3270   33.5731 C   0  0  0  0  0  0  0  0  0  0  0  0
   13.1175   37.6316   34.5688 C   0  0  0  0  0  0  0  0  0  0  0  0
   15.2064   35.6141   32.6742 N   0  0  0  0  0  0  0  0  0  0  0  0
   14.6729   36.2274   34.9184 C   0  0  0  0  0  0  0  0  0  0  0  0
   13.8221   37.0457   35.5783 N   0  0  0  0  0  0  0  0  0  0  0  0
   16.1637   34.7597   33.1549 C   0  0  0  0  0  0  0  0  0  0  0  0
   15.6514   35.3493   35.4133 C   0  0  0  0  0  0  0  0  0  0  0  0
   16.3791   34.6312   34.5044 N   0  0  0  0  0  0  0  0  0  0  0  0
   15.9002   35.1935   36.8091 N   0  0  0  0  0  0  0  0  0  0  0  0
    9.0532   45.4866   33.7452 H   0  0  0  0  0  0  0  0  0  0  0  0
   11.1836   46.1529   34.5354 H   0  0  0  0  0  0  0  0  0  0  0  0
   11.9494   45.7040   33.0866 H   0  0  0  0  0  0  0  0  0  0  0  0
   10.6173   44.6975   31.1935 H   0  0  0  0  0  0  0  0  0  0  0  0
    9.5284   46.1042   31.3456 H   0  0  0  0  0  0  0  0  0  0  0  0
    7.0668   45.5010   32.3372 H   0  0  0  0  0  0  0  0  0  0  0  0
    9.6455   42.7796   30.2076 H   0  0  0  0  0  0  0  0  0  0  0  0
    5.1301   44.0889   31.7829 H   0  0  0  0  0  0  0  0  0  0  0  0
    7.7265   41.3715   29.6688 H   0  0  0  0  0  0  0  0  0  0  0  0
    4.1369   40.2206   29.6266 H   0  0  0  0  0  0  0  0  0  0  0  0
    5.8109   39.8834   30.2078 H   0  0  0  0  0  0  0  0  0  0  0  0
    5.5430   40.8029   28.6591 H   0  0  0  0  0  0  0  0  0  0  0  0
   11.3968   41.5440   31.4777 H   0  0  0  0  0  0  0  0  0  0  0  0
    9.8296   40.7285   31.7634 H   0  0  0  0  0  0  0  0  0  0  0  0
   11.6982   39.5108   30.3503 H   0  0  0  0  0  0  0  0  0  0  0  0
   10.1117   38.2579   32.6657 H   0  0  0  0  0  0  0  0  0  0  0  0
   13.6799   37.4628   31.2266 H   0  0  0  0  0  0  0  0  0  0  0  0
    8.8993   38.6987   30.8832 H   0  0  0  0  0  0  0  0  0  0  0  0
   11.2828   36.3057   32.4926 H   0  0  0  0  0  0  0  0  0  0  0  0
   11.8857   36.9592   29.7591 H   0  0  0  0  0  0  0  0  0  0  0  0
   12.3359   38.3598   34.7441 H   0  0  0  0  0  0  0  0  0  0  0  0
   16.7573   34.1793   32.4621 H   0  0  0  0  0  0  0  0  0  0  0  0
   16.6362   34.5318   37.1416 H   0  0  0  0  0  0  0  0  0  0  0  0
   15.3528   35.7356   37.5140 H   0  0  0  0  0  0  0  0  0  0  0  0
  1  2  2  0
  1  3  1  0
  3  4  1  0
  4  5  1  0
  6  1  1  0
  7  6  1  0
  6  8  1  0
  8  9  1  0
  9 10  2  0
 11  9  1  0
 10 12  1  0
 13 11  2  0
 12 14  2  0
 14 13  1  0
 14 15  1  0
 15 16  1  0
  4 17  2  0
  4 18  1  0
 19 18  1  0
 19 20  1  0
 20 21  1  0
 20 22  1  0
 21 23  1  0
 22 24  1  0
 22 25  1  0
 25 23  1  0
 23 26  1  0
 25 27  1  0
 28 26  1  0
 29 26  1  0
 30 28  2  0
 28 31  1  0
 32 29  2  0
 33 30  1  0
 31 34  2  0
 31 32  1  0
 35 33  2  0
 35 34  1  0
 34 36  1  0
  6 37  1  1
  7 38  1  0
  7 39  1  0
  8 40  1  0
  8 41  1  0
 10 42  1  0
 11 43  1  0
 12 44  1  0
 13 45  1  0
 16 46  1  0
 16 47  1  0
 16 48  1  0
 19 49  1  0
 19 50  1  0
 20 51  1  0
 22 52  1  0
 23 53  1  0
 24 54  1  0
 25 55  1  0
 27 56  1  0
 29 57  1  0
 33 58  1  0
 36 59  1  0
 36 60  1  0
M  CHG  1   5  -1
M  END
>  <EmbedRMS>  (13) 
0.089495979838009

$$$$

     RDKit          3D

 60 63  0  0  0  0  0  0  0  0999 V2000
   10.2871   43.7692   33.7895 C   0  0  0  0  0  0  0  0  0  0  0  0
   11.4140   43.5805   34.3360 O   0  0  0  0  0  0  0  0  0  0  0  0
    9.3643   42.7312   33.6953 O   0  0  0  0  0  0  0  0  0  0  0  0
    9.8823   41.2338   34.2826 P   0  0  0  0  0  5  0  0  0  0  0  0
   10.3620   41.4720   35.8732 O   0  0  0  0  0  1  0  0  0  0  0  0
    9.9371   45.1298   33.2923 C   0  0  1  0  0  0  0  0  0  0  0  0
   11.0773   46.0315   33.4642 N   0  0  0  0  0  0  0  0  0  0  0  0
    9.4244   45.1276   31.8315 C   0  0  0  0  0  0  0  0  0  0  0  0
   10.2828   44.3617   30.8481 C   0  0  0  0  0  0  0  0  0  0  0  0
   11.6143   44.7359   30.6027 C   0  0  0  0  0  0  0  0  0  0  0  0
    9.7213   43.3142   30.0980 C   0  0  0  0  0  0  0  0  0  0  0  0
   12.3823   44.0462   29.6593 C   0  0  0  0  0  0  0  0  0  0  0  0
   10.4846   42.6364   29.1434 C   0  0  0  0  0  0  0  0  0  0  0  0
   11.8210   42.9854   28.9238 C   0  0  0  0  0  0  0  0  0  0  0  0
   12.5519   42.2585   27.9727 O   0  0  0  0  0  0  0  0  0  0  0  0
   13.9229   42.4889   27.6655 C   0  0  0  0  0  0  0  0  0  0  0  0
    8.8045   40.1915   34.2086 O   0  0  0  0  0  0  0  0  0  0  0  0
   11.2364   40.7804   33.3754 O   0  0  0  0  0  0  0  0  0  0  0  0
   10.9267   40.6863   32.0003 C   0  0  0  0  0  0  0  0  0  0  0  0
   11.5194   39.3783   31.4412 C   0  0  0  0  0  0  0  0  0  0  0  0
   12.7506   39.0839   32.0723 O   0  0  0  0  0  0  0  0  0  0  0  0
   10.6053   38.1890   31.6677 C   0  0  0  0  0  0  0  0  0  0  0  0
   12.9349   37.6776   32.0278 C   0  0  0  0  0  0  0  0  0  0  0  0
    9.6388   38.0953   30.6490 O   0  0  0  0  0  0  0  0  0  0  0  0
   11.5754   37.0137   31.7059 C   0  0  0  0  0  0  0  0  0  0  0  0
   13.4908   37.2168   33.3232 N   0  0  0  0  0  0  0  0  0  0  0  0
   11.6218   36.3377   30.4687 O   0  0  0  0  0  0  0  0  0  0  0  0
   14.4766   36.3268   33.5728 C   0  0  0  0  0  0  0  0  0  0  0  0
   13.1181   37.6312   34.5683 C   0  0  0  0  0  0  0  0  0  0  0  0
   15.2067   35.6134   32.6740 N   0  0  0  0  0  0  0  0  0  0  0  0
   14.6736   36.2275   34.9182 C   0  0  0  0  0  0  0  0  0  0  0  0
   13.8227   37.0457   35.5780 N   0  0  0  0  0  0  0  0  0  0  0  0
   16.1640   34.7591   33.1549 C   0  0  0  0  0  0  0  0  0  0  0  0
   15.6518   35.3492   35.4132 C   0  0  0  0  0  0  0  0  0  0  0  0
   16.3794   34.6309   34.5044 N   0  0  0  0  0  0  0  0  0  0  0  0
   15.9003   35.1934   36.8091 N   0  0  0  0  0  0  0  0  0  0  0  0
    9.1037   45.5033   33.9299 H   0  0  0  0  0  0  0  0  0  0  0  0
   10.8071   46.9808   33.1178 H   0  0  0  0  0  0  0  0  0  0  0  0
   11.2565   46.1520   34.4885 H   0  0  0  0  0  0  0  0  0  0  0  0
    8.3938   44.7083   31.8365 H   0  0  0  0  0  0  0  0  0  0  0  0
    9.3208   46.1736   31.4704 H   0  0  0  0  0  0  0  0  0  0  0  0
   12.0608   45.5672   31.1300 H   0  0  0  0  0  0  0  0  0  0  0  0
    8.6912   43.0174   30.2510 H   0  0  0  0  0  0  0  0  0  0  0  0
   13.4078   44.3518   29.5032 H   0  0  0  0  0  0  0  0  0  0  0  0
   10.0393   41.8249   28.5818 H   0  0  0  0  0  0  0  0  0  0  0  0
   14.0583   43.5185   27.2724 H   0  0  0  0  0  0  0  0  0  0  0  0
   14.5472   42.3400   28.5719 H   0  0  0  0  0  0  0  0  0  0  0  0
   14.2466   41.7665   26.8885 H   0  0  0  0  0  0  0  0  0  0  0  0
    9.8411   40.7443   31.7489 H   0  0  0  0  0  0  0  0  0  0  0  0
   11.4330   41.5332   31.4960 H   0  0  0  0  0  0  0  0  0  0  0  0
   11.6993   39.5059   30.3484 H   0  0  0  0  0  0  0  0  0  0  0  0
   10.1098   38.2798   32.6633 H   0  0  0  0  0  0  0  0  0  0  0  0
   13.6671   37.4511   31.2209 H   0  0  0  0  0  0  0  0  0  0  0  0
    8.9773   37.4209   30.9535 H   0  0  0  0  0  0  0  0  0  0  0  0
   11.2847   36.3053   32.5180 H   0  0  0  0  0  0  0  0  0  0  0  0
   10.8660   35.6941   30.4657 H   0  0  0  0  0  0  0  0  0  0  0  0
   12.3355   38.3583   34.7434 H   0  0  0  0  0  0  0  0  0  0  0  0
   16.7575   34.1784   32.4623 H   0  0  0  0  0  0  0  0  0  0  0  0
   16.6361   34.5316   37.1417 H   0  0  0  0  0  0  0  0  0  0  0  0
   15.3530   35.7358   37.5138 H   0  0  0  0  0  0  0  0  0  0  0  0
  1  2  2  0
  1  3  1  0
  3  4  1  0
  4  5  1  0
  6  1  1  0
  7  6  1  0
  6  8  1  0
  8  9  1  0
  9 10  2  0
 11  9  1  0
 10 12  1  0
 13 11  2  0
 12 14  2  0
 14 13  1  0
 14 15  1  0
 15 16  1  0
  4 17  2  0
  4 18  1  0
 19 18  1  0
 19 20  1  0
 20 21  1  0
 20 22  1  0
 21 23  1  0
 22 24  1  0
 22 25  1  0
 25 23  1  0
 23 26  1  0
 25 27  1  0
 28 26  1  0
 29 26  1  0
 30 28  2  0
 28 31  1  0
 32 29  2  0
 33 30  1  0
 31 34  2  0
 31 32  1  0
 35 33  2  0
 35 34  1  0
 34 36  1  0
  6 37  1  1
  7 38  1  0
  7 39  1  0
  8 40  1  0
  8 41  1  0
 10 42  1  0
 11 43  1  0
 12 44  1  0
 13 45  1  0
 16 46  1  0
 16 47  1  0
 16 48  1  0
 19 49  1  0
 19 50  1  0
 20 51  1  0
 22 52  1  0
 23 53  1  0
 24 54  1  0
 25 55  1  0
 27 56  1  0
 29 57  1  0
 33 58  1  0
 36 59  1  0
 36 60  1  0
M  CHG  1   5  -1
M  END
>  <EmbedRMS>  (14) 
0.09133034092637508

$$$$

     RDKit          3D

 60 63  0  0  0  0  0  0  0  0999 V2000
   10.2875   43.7724   33.7999 C   0  0  0  0  0  0  0  0  0  0  0  0
   11.4101   43.5905   34.3570 O   0  0  0  0  0  0  0  0  0  0  0  0
    9.3639   42.7340   33.7096 O   0  0  0  0  0  0  0  0  0  0  0  0
    9.8851   41.2352   34.2865 P   0  0  0  0  0  5  0  0  0  0  0  0
   10.3675   41.4677   35.8765 O   0  0  0  0  0  1  0  0  0  0  0  0
    9.9623   45.1043   33.2247 C   0  0  1  0  0  0  0  0  0  0  0  0
   11.0639   46.0310   33.4993 N   0  0  0  0  0  0  0  0  0  0  0  0
    9.6879   44.9761   31.7098 C   0  0  0  0  0  0  0  0  0  0  0  0
    9.2410   46.2844   31.1097 C   0  0  0  0  0  0  0  0  0  0  0  0
   10.1514   47.0989   30.4188 C   0  0  0  0  0  0  0  0  0  0  0  0
    7.9162   46.7182   31.2701 C   0  0  0  0  0  0  0  0  0  0  0  0
    9.7385   48.3232   29.8859 C   0  0  0  0  0  0  0  0  0  0  0  0
    7.5035   47.9428   30.7366 C   0  0  0  0  0  0  0  0  0  0  0  0
    8.4161   48.7560   30.0376 C   0  0  0  0  0  0  0  0  0  0  0  0
    8.0517   49.9924   29.4842 O   0  0  0  0  0  0  0  0  0  0  0  0
    6.7459   50.5547   29.5632 C   0  0  0  0  0  0  0  0  0  0  0  0
    8.8082   40.1917   34.2097 O   0  0  0  0  0  0  0  0  0  0  0  0
   11.2365   40.7935   33.3685 O   0  0  0  0  0  0  0  0  0  0  0  0
   10.9140   40.6909   31.9960 C   0  0  0  0  0  0  0  0  0  0  0  0
   11.5263   39.3906   31.4378 C   0  0  0  0  0  0  0  0  0  0  0  0
   12.7501   39.0923   32.0844 O   0  0  0  0  0  0  0  0  0  0  0  0
   10.6119   38.1920   31.6452 C   0  0  0  0  0  0  0  0  0  0  0  0
   12.9427   37.6859   32.0296 C   0  0  0  0  0  0  0  0  0  0  0  0
    9.6068   38.0860   30.6602 O   0  0  0  0  0  0  0  0  0  0  0  0
   11.5844   37.0190   31.6880 C   0  0  0  0  0  0  0  0  0  0  0  0
   13.4898   37.2166   33.3250 N   0  0  0  0  0  0  0  0  0  0  0  0
   11.6202   36.3066   30.4694 O   0  0  0  0  0  0  0  0  0  0  0  0
   14.4758   36.3265   33.5738 C   0  0  0  0  0  0  0  0  0  0  0  0
   13.1175   37.6309   34.5699 C   0  0  0  0  0  0  0  0  0  0  0  0
   15.2064   35.6140   32.6745 N   0  0  0  0  0  0  0  0  0  0  0  0
   14.6731   36.2268   34.9190 C   0  0  0  0  0  0  0  0  0  0  0  0
   13.8224   37.0450   35.5792 N   0  0  0  0  0  0  0  0  0  0  0  0
   16.1639   34.7597   33.1550 C   0  0  0  0  0  0  0  0  0  0  0  0
   15.6517   35.3489   35.4135 C   0  0  0  0  0  0  0  0  0  0  0  0
   16.3794   34.6310   34.5045 N   0  0  0  0  0  0  0  0  0  0  0  0
   15.9006   35.1931   36.8093 N   0  0  0  0  0  0  0  0  0  0  0  0
    9.0442   45.4725   33.7343 H   0  0  0  0  0  0  0  0  0  0  0  0
   11.8658   45.8304   32.8571 H   0  0  0  0  0  0  0  0  0  0  0  0
   10.7422   47.0072   33.3068 H   0  0  0  0  0  0  0  0  0  0  0  0
    8.8905   44.2195   31.5377 H   0  0  0  0  0  0  0  0  0  0  0  0
   10.5976   44.6018   31.1892 H   0  0  0  0  0  0  0  0  0  0  0  0
   11.1816   46.7884   30.2959 H   0  0  0  0  0  0  0  0  0  0  0  0
    7.2032   46.1075   31.8104 H   0  0  0  0  0  0  0  0  0  0  0  0
   10.4509   48.9411   29.3539 H   0  0  0  0  0  0  0  0  0  0  0  0
    6.4755   48.2484   30.8751 H   0  0  0  0  0  0  0  0  0  0  0  0
    6.0112   49.8847   29.0688 H   0  0  0  0  0  0  0  0  0  0  0  0
    6.7407   51.5339   29.0421 H   0  0  0  0  0  0  0  0  0  0  0  0
    6.4631   50.7154   30.6250 H   0  0  0  0  0  0  0  0  0  0  0  0
   11.3792   41.5541   31.4733 H   0  0  0  0  0  0  0  0  0  0  0  0
    9.8236   40.7196   31.7601 H   0  0  0  0  0  0  0  0  0  0  0  0
   11.7314   39.5346   30.3524 H   0  0  0  0  0  0  0  0  0  0  0  0
   10.1210   38.2685   32.6412 H   0  0  0  0  0  0  0  0  0  0  0  0
   13.6880   37.4718   31.2319 H   0  0  0  0  0  0  0  0  0  0  0  0
   10.0256   38.1757   29.7656 H   0  0  0  0  0  0  0  0  0  0  0  0
   11.2795   36.3128   32.4916 H   0  0  0  0  0  0  0  0  0  0  0  0
   11.9870   36.9103   29.7715 H   0  0  0  0  0  0  0  0  0  0  0  0
   12.3365   38.3597   34.7455 H   0  0  0  0  0  0  0  0  0  0  0  0
   16.7575   34.1795   32.4621 H   0  0  0  0  0  0  0  0  0  0  0  0
   15.3532   35.7351   37.5143 H   0  0  0  0  0  0  0  0  0  0  0  0
   16.6368   34.5316   37.1417 H   0  0  0  0  0  0  0  0  0  0  0  0
  1  2  2  0
  1  3  1  0
  3  4  1  0
  4  5  1  0
  6  1  1  0
  7  6  1  0
  6  8  1  0
  8  9  1  0
  9 10  2  0
 11  9  1  0
 10 12  1  0
 13 11  2  0
 12 14  2  0
 14 13  1  0
 14 15  1  0
 15 16  1  0
  4 17  2  0
  4 18  1  0
 19 18  1  0
 19 20  1  0
 20 21  1  0
 20 22  1  0
 21 23  1  0
 22 24  1  0
 22 25  1  0
 25 23  1  0
 23 26  1  0
 25 27  1  0
 28 26  1  0
 29 26  1  0
 30 28  2  0
 28 31  1  0
 32 29  2  0
 33 30  1  0
 31 34  2  0
 31 32  1  0
 35 33  2  0
 35 34  1  0
 34 36  1  0
  6 37  1  1
  7 38  1  0
  7 39  1  0
  8 40  1  0
  8 41  1  0
 10 42  1  0
 11 43  1  0
 12 44  1  0
 13 45  1  0
 16 46  1  0
 16 47  1  0
 16 48  1  0
 19 49  1  0
 19 50  1  0
 20 51  1  0
 22 52  1  0
 23 53  1  0
 24 54  1  0
 25 55  1  0
 27 56  1  0
 29 57  1  0
 33 58  1  0
 36 59  1  0
 36 60  1  0
M  CHG  1   5  -1
M  END
>  <EmbedRMS>  (15) 
0.08660811496172022

$$$$

     RDKit          3D

 60 63  0  0  0  0  0  0  0  0999 V2000
   10.2941   43.7721   33.7963 C   0  0  0  0  0  0  0  0  0  0  0  0
   11.4140   43.5897   34.3577 O   0  0  0  0  0  0  0  0  0  0  0  0
    9.3669   42.7361   33.7089 O   0  0  0  0  0  0  0  0  0  0  0  0
    9.8869   41.2361   34.2840 P   0  0  0  0  0  5  0  0  0  0  0  0
   10.3708   41.4671   35.8740 O   0  0  0  0  0  1  0  0  0  0  0  0
    9.9763   45.1032   33.2094 C   0  0  1  0  0  0  0  0  0  0  0  0
   11.0437   46.0546   33.5257 N   0  0  0  0  0  0  0  0  0  0  0  0
    9.7515   45.0005   31.6770 C   0  0  0  0  0  0  0  0  0  0  0  0
   10.9986   45.2155   30.8410 C   0  0  0  0  0  0  0  0  0  0  0  0
   11.0193   46.2152   29.8536 C   0  0  0  0  0  0  0  0  0  0  0  0
   12.1357   44.4098   31.0146 C   0  0  0  0  0  0  0  0  0  0  0  0
   12.1556   46.4100   29.0627 C   0  0  0  0  0  0  0  0  0  0  0  0
   13.2712   44.6046   30.2240 C   0  0  0  0  0  0  0  0  0  0  0  0
   13.2934   45.6021   29.2438 C   0  0  0  0  0  0  0  0  0  0  0  0
   14.4574   45.7574   28.4764 O   0  0  0  0  0  0  0  0  0  0  0  0
   14.6183   46.7292   27.4482 C   0  0  0  0  0  0  0  0  0  0  0  0
    8.8088   40.1934   34.2085 O   0  0  0  0  0  0  0  0  0  0  0  0
   11.2364   40.7963   33.3609 O   0  0  0  0  0  0  0  0  0  0  0  0
   10.9042   40.6768   31.9910 C   0  0  0  0  0  0  0  0  0  0  0  0
   11.5144   39.3733   31.4399 C   0  0  0  0  0  0  0  0  0  0  0  0
   12.7449   39.0863   32.0769 O   0  0  0  0  0  0  0  0  0  0  0  0
   10.6060   38.1809   31.6661 C   0  0  0  0  0  0  0  0  0  0  0  0
   12.9369   37.6809   32.0293 C   0  0  0  0  0  0  0  0  0  0  0  0
    9.6396   38.0845   30.6478 O   0  0  0  0  0  0  0  0  0  0  0  0
   11.5796   37.0111   31.7042 C   0  0  0  0  0  0  0  0  0  0  0  0
   13.4916   37.2182   33.3241 N   0  0  0  0  0  0  0  0  0  0  0  0
   11.6138   36.3378   30.4665 O   0  0  0  0  0  0  0  0  0  0  0  0
   14.4766   36.3272   33.5731 C   0  0  0  0  0  0  0  0  0  0  0  0
   13.1185   37.6317   34.5692 C   0  0  0  0  0  0  0  0  0  0  0  0
   15.2066   35.6139   32.6741 N   0  0  0  0  0  0  0  0  0  0  0  0
   14.6736   36.2273   34.9185 C   0  0  0  0  0  0  0  0  0  0  0  0
   13.8228   37.0455   35.5786 N   0  0  0  0  0  0  0  0  0  0  0  0
   16.1638   34.7593   33.1548 C   0  0  0  0  0  0  0  0  0  0  0  0
   15.6517   35.3490   35.4132 C   0  0  0  0  0  0  0  0  0  0  0  0
   16.3793   34.6308   34.5043 N   0  0  0  0  0  0  0  0  0  0  0  0
   15.9004   35.1932   36.8091 N   0  0  0  0  0  0  0  0  0  0  0  0
    9.0282   45.4509   33.6792 H   0  0  0  0  0  0  0  0  0  0  0  0
   10.7867   46.9816   33.1142 H   0  0  0  0  0  0  0  0  0  0  0  0
   11.0589   46.2026   34.5618 H   0  0  0  0  0  0  0  0  0  0  0  0
    8.9881   45.7610   31.4013 H   0  0  0  0  0  0  0  0  0  0  0  0
    9.3058   44.0184   31.4060 H   0  0  0  0  0  0  0  0  0  0  0  0
   10.1550   46.8474   29.6926 H   0  0  0  0  0  0  0  0  0  0  0  0
   12.1556   43.6406   31.7704 H   0  0  0  0  0  0  0  0  0  0  0  0
   12.1381   47.1894   28.3133 H   0  0  0  0  0  0  0  0  0  0  0  0
   14.1406   43.9773   30.3752 H   0  0  0  0  0  0  0  0  0  0  0  0
   15.6320   46.6283   27.0094 H   0  0  0  0  0  0  0  0  0  0  0  0
   13.8663   46.5659   26.6474 H   0  0  0  0  0  0  0  0  0  0  0  0
   14.5131   47.7514   27.8691 H   0  0  0  0  0  0  0  0  0  0  0  0
   11.3636   41.5261   31.4490 H   0  0  0  0  0  0  0  0  0  0  0  0
    9.8123   40.7039   31.7620 H   0  0  0  0  0  0  0  0  0  0  0  0
   11.6981   39.4968   30.3474 H   0  0  0  0  0  0  0  0  0  0  0  0
   10.1088   38.2696   32.6612 H   0  0  0  0  0  0  0  0  0  0  0  0
   13.6717   37.4607   31.2231 H   0  0  0  0  0  0  0  0  0  0  0  0
    9.0032   37.3787   30.9343 H   0  0  0  0  0  0  0  0  0  0  0  0
   11.2724   36.3014   32.5079 H   0  0  0  0  0  0  0  0  0  0  0  0
   12.1475   35.5136   30.6122 H   0  0  0  0  0  0  0  0  0  0  0  0
   12.3362   38.3592   34.7446 H   0  0  0  0  0  0  0  0  0  0  0  0
   16.7571   34.1787   32.4620 H   0  0  0  0  0  0  0  0  0  0  0  0
   16.6363   34.5313   37.1416 H   0  0  0  0  0  0  0  0  0  0  0  0
   15.3532   35.7355   37.5139 H   0  0  0  0  0  0  0  0  0  0  0  0
  1  2  2  0
  1  3  1  0
  3  4  1  0
  4  5  1  0
  6  1  1  0
  7  6  1  0
  6  8  1  0
  8  9  1  0
  9 10  2  0
 11  9  1  0
 10 12  1  0
 13 11  2  0
 12 14  2  0
 14 13  1  0
 14 15  1  0
 15 16  1  0
  4 17  2  0
  4 18  1  0
 19 18  1  0
 19 20  1  0
 20 21  1  0
 20 22  1  0
 21 23  1  0
 22 24  1  0
 22 25  1  0
 25 23  1  0
 23 26  1  0
 25 27  1  0
 28 26  1  0
 29 26  1  0
 30 28  2  0
 28 31  1  0
 32 29  2  0
 33 30  1  0
 31 34  2  0
 31 32  1  0
 35 33  2  0
 35 34  1  0
 34 36  1  0
  6 37  1  1
  7 38  1  0
  7 39  1  0
  8 40  1  0
  8 41  1  0
 10 42  1  0
 11 43  1  0
 12 44  1  0
 13 45  1  0
 16 46  1  0
 16 47  1  0
 16 48  1  0
 19 49  1  0
 19 50  1  0
 20 51  1  0
 22 52  1  0
 23 53  1  0
 24 54  1  0
 25 55  1  0
 27 56  1  0
 29 57  1  0
 33 58  1  0
 36 59  1  0
 36 60  1  0
M  CHG  1   5  -1
M  END
>  <EmbedRMS>  (16) 
0.08966030804682257

$$$$

     RDKit          3D

 60 63  0  0  0  0  0  0  0  0999 V2000
   10.2925   43.7669   33.7915 C   0  0  0  0  0  0  0  0  0  0  0  0
   11.4137   43.5794   34.3492 O   0  0  0  0  0  0  0  0  0  0  0  0
    9.3646   42.7323   33.7092 O   0  0  0  0  0  0  0  0  0  0  0  0
    9.8840   41.2333   34.2865 P   0  0  0  0  0  5  0  0  0  0  0  0
   10.3661   41.4668   35.8765 O   0  0  0  0  0  1  0  0  0  0  0  0
    9.9654   45.1141   33.2334 C   0  0  1  0  0  0  0  0  0  0  0  0
   11.0558   46.0545   33.5000 N   0  0  0  0  0  0  0  0  0  0  0  0
    9.7003   45.0687   31.7135 C   0  0  0  0  0  0  0  0  0  0  0  0
    8.4834   44.2522   31.3480 C   0  0  0  0  0  0  0  0  0  0  0  0
    8.6186   43.0800   30.5880 C   0  0  0  0  0  0  0  0  0  0  0  0
    7.2037   44.6556   31.7611 C   0  0  0  0  0  0  0  0  0  0  0  0
    7.4994   42.3026   30.2786 C   0  0  0  0  0  0  0  0  0  0  0  0
    6.0837   43.8801   31.4479 C   0  0  0  0  0  0  0  0  0  0  0  0
    6.2199   42.6971   30.7125 C   0  0  0  0  0  0  0  0  0  0  0  0
    5.0672   41.9478   30.4342 O   0  0  0  0  0  0  0  0  0  0  0  0
    5.0616   40.7220   29.7097 C   0  0  0  0  0  0  0  0  0  0  0  0
    8.8061   40.1911   34.2095 O   0  0  0  0  0  0  0  0  0  0  0  0
   11.2363   40.7892   33.3702 O   0  0  0  0  0  0  0  0  0  0  0  0
   10.9148   40.6867   31.9977 C   0  0  0  0  0  0  0  0  0  0  0  0
   11.5250   39.3870   31.4376 C   0  0  0  0  0  0  0  0  0  0  0  0
   12.7486   39.0878   32.0808 O   0  0  0  0  0  0  0  0  0  0  0  0
   10.6100   38.1905   31.6472 C   0  0  0  0  0  0  0  0  0  0  0  0
   12.9348   37.6807   32.0293 C   0  0  0  0  0  0  0  0  0  0  0  0
    9.6125   38.0877   30.6547 O   0  0  0  0  0  0  0  0  0  0  0  0
   11.5767   37.0131   31.7023 C   0  0  0  0  0  0  0  0  0  0  0  0
   13.4901   37.2163   33.3237 N   0  0  0  0  0  0  0  0  0  0  0  0
   11.6322   36.3233   30.4736 O   0  0  0  0  0  0  0  0  0  0  0  0
   14.4762   36.3265   33.5728 C   0  0  0  0  0  0  0  0  0  0  0  0
   13.1179   37.6306   34.5689 C   0  0  0  0  0  0  0  0  0  0  0  0
   15.2065   35.6134   32.6739 N   0  0  0  0  0  0  0  0  0  0  0  0
   14.6736   36.2272   34.9182 C   0  0  0  0  0  0  0  0  0  0  0  0
   13.8228   37.0452   35.5783 N   0  0  0  0  0  0  0  0  0  0  0  0
   16.1640   34.7592   33.1547 C   0  0  0  0  0  0  0  0  0  0  0  0
   15.6519   35.3491   35.4131 C   0  0  0  0  0  0  0  0  0  0  0  0
   16.3795   34.6309   34.5042 N   0  0  0  0  0  0  0  0  0  0  0  0
   15.9005   35.1933   36.8089 N   0  0  0  0  0  0  0  0  0  0  0  0
    9.0549   45.4883   33.7497 H   0  0  0  0  0  0  0  0  0  0  0  0
   11.9491   45.7024   33.0825 H   0  0  0  0  0  0  0  0  0  0  0  0
   11.1882   46.1519   34.5337 H   0  0  0  0  0  0  0  0  0  0  0  0
   10.6041   44.6778   31.1949 H   0  0  0  0  0  0  0  0  0  0  0  0
    9.5426   46.1056   31.3445 H   0  0  0  0  0  0  0  0  0  0  0  0
    9.5920   42.7630   30.2373 H   0  0  0  0  0  0  0  0  0  0  0  0
    7.0730   45.5672   32.3304 H   0  0  0  0  0  0  0  0  0  0  0  0
    7.6404   41.3982   29.7027 H   0  0  0  0  0  0  0  0  0  0  0  0
    5.1040   44.1985   31.7811 H   0  0  0  0  0  0  0  0  0  0  0  0
    5.4468   40.8848   28.6809 H   0  0  0  0  0  0  0  0  0  0  0  0
    4.0207   40.3445   29.6437 H   0  0  0  0  0  0  0  0  0  0  0  0
    5.6820   39.9652   30.2349 H   0  0  0  0  0  0  0  0  0  0  0  0
   11.3819   41.5491   31.4762 H   0  0  0  0  0  0  0  0  0  0  0  0
    9.8245   40.7099   31.7640 H   0  0  0  0  0  0  0  0  0  0  0  0
   11.7266   39.5300   30.3514 H   0  0  0  0  0  0  0  0  0  0  0  0
   10.1120   38.2719   32.6391 H   0  0  0  0  0  0  0  0  0  0  0  0
   13.6687   37.4592   31.2225 H   0  0  0  0  0  0  0  0  0  0  0  0
   10.0510   38.1138   29.7647 H   0  0  0  0  0  0  0  0  0  0  0  0
   11.2803   36.3123   32.5190 H   0  0  0  0  0  0  0  0  0  0  0  0
   10.8620   35.6969   30.4635 H   0  0  0  0  0  0  0  0  0  0  0  0
   12.3356   38.3580   34.7445 H   0  0  0  0  0  0  0  0  0  0  0  0
   16.7575   34.1787   32.4620 H   0  0  0  0  0  0  0  0  0  0  0  0
   16.6364   34.5315   37.1415 H   0  0  0  0  0  0  0  0  0  0  0  0
   15.3531   35.7355   37.5138 H   0  0  0  0  0  0  0  0  0  0  0  0
  1  2  2  0
  1  3  1  0
  3  4  1  0
  4  5  1  0
  6  1  1  0
  7  6  1  0
  6  8  1  0
  8  9  1  0
  9 10  2  0
 11  9  1  0
 10 12  1  0
 13 11  2  0
 12 14  2  0
 14 13  1  0
 14 15  1  0
 15 16  1  0
  4 17  2  0
  4 18  1  0
 19 18  1  0
 19 20  1  0
 20 21  1  0
 20 22  1  0
 21 23  1  0
 22 24  1  0
 22 25  1  0
 25 23  1  0
 23 26  1  0
 25 27  1  0
 28 26  1  0
 29 26  1  0
 30 28  2  0
 28 31  1  0
 32 29  2  0
 33 30  1  0
 31 34  2  0
 31 32  1  0
 35 33  2  0
 35 34  1  0
 34 36  1  0
  6 37  1  1
  7 38  1  0
  7 39  1  0
  8 40  1  0
  8 41  1  0
 10 42  1  0
 11 43  1  0
 12 44  1  0
 13 45  1  0
 16 46  1  0
 16 47  1  0
 16 48  1  0
 19 49  1  0
 19 50  1  0
 20 51  1  0
 22 52  1  0
 23 53  1  0
 24 54  1  0
 25 55  1  0
 27 56  1  0
 29 57  1  0
 33 58  1  0
 36 59  1  0
 36 60  1  0
M  CHG  1   5  -1
M  END
>  <EmbedRMS>  (17) 
0.08923068875416773

$$$$

     RDKit          3D

 60 63  0  0  0  0  0  0  0  0999 V2000
   10.2891   43.7708   33.7903 C   0  0  0  0  0  0  0  0  0  0  0  0
   11.4142   43.5855   34.3415 O   0  0  0  0  0  0  0  0  0  0  0  0
    9.3633   42.7337   33.7099 O   0  0  0  0  0  0  0  0  0  0  0  0
    9.8846   41.2350   34.2866 P   0  0  0  0  0  5  0  0  0  0  0  0
   10.3672   41.4682   35.8765 O   0  0  0  0  0  1  0  0  0  0  0  0
    9.9603   45.1140   33.2284 C   0  0  1  0  0  0  0  0  0  0  0  0
   11.0606   46.0372   33.5112 N   0  0  0  0  0  0  0  0  0  0  0  0
    9.7264   45.0480   31.7016 C   0  0  0  0  0  0  0  0  0  0  0  0
    8.5168   44.2273   31.3200 C   0  0  0  0  0  0  0  0  0  0  0  0
    8.6629   43.0681   30.5425 C   0  0  0  0  0  0  0  0  0  0  0  0
    7.2311   44.6218   31.7240 C   0  0  0  0  0  0  0  0  0  0  0  0
    7.5479   42.2949   30.2087 C   0  0  0  0  0  0  0  0  0  0  0  0
    6.1152   43.8496   31.3875 C   0  0  0  0  0  0  0  0  0  0  0  0
    6.2683   42.6734   30.6291 C   0  0  0  0  0  0  0  0  0  0  0  0
    5.1819   41.8611   30.2721 O   0  0  0  0  0  0  0  0  0  0  0  0
    3.8299   42.1228   30.6338 C   0  0  0  0  0  0  0  0  0  0  0  0
    8.8071   40.1921   34.2102 O   0  0  0  0  0  0  0  0  0  0  0  0
   11.2365   40.7905   33.3700 O   0  0  0  0  0  0  0  0  0  0  0  0
   10.9144   40.6864   31.9977 C   0  0  0  0  0  0  0  0  0  0  0  0
   11.5259   39.3870   31.4379 C   0  0  0  0  0  0  0  0  0  0  0  0
   12.7492   39.0892   32.0826 O   0  0  0  0  0  0  0  0  0  0  0  0
   10.6123   38.1889   31.6464 C   0  0  0  0  0  0  0  0  0  0  0  0
   12.9374   37.6827   32.0302 C   0  0  0  0  0  0  0  0  0  0  0  0
    9.6151   38.0843   30.6538 O   0  0  0  0  0  0  0  0  0  0  0  0
   11.5794   37.0135   31.7012 C   0  0  0  0  0  0  0  0  0  0  0  0
   13.4906   37.2167   33.3243 N   0  0  0  0  0  0  0  0  0  0  0  0
   11.6217   36.3255   30.4721 O   0  0  0  0  0  0  0  0  0  0  0  0
   14.4763   36.3265   33.5731 C   0  0  0  0  0  0  0  0  0  0  0  0
   13.1181   37.6307   34.5695 C   0  0  0  0  0  0  0  0  0  0  0  0
   15.2065   35.6136   32.6740 N   0  0  0  0  0  0  0  0  0  0  0  0
   14.6736   36.2269   34.9185 C   0  0  0  0  0  0  0  0  0  0  0  0
   13.8229   37.0450   35.5788 N   0  0  0  0  0  0  0  0  0  0  0  0
   16.1639   34.7593   33.1547 C   0  0  0  0  0  0  0  0  0  0  0  0
   15.6519   35.3489   35.4132 C   0  0  0  0  0  0  0  0  0  0  0  0
   16.3795   34.6308   34.5042 N   0  0  0  0  0  0  0  0  0  0  0  0
   15.9006   35.1931   36.8090 N   0  0  0  0  0  0  0  0  0  0  0  0
    9.0405   45.4879   33.7309 H   0  0  0  0  0  0  0  0  0  0  0  0
   10.8138   46.9778   33.1254 H   0  0  0  0  0  0  0  0  0  0  0  0
   11.1216   46.1723   34.5476 H   0  0  0  0  0  0  0  0  0  0  0  0
   10.6425   44.6519   31.2093 H   0  0  0  0  0  0  0  0  0  0  0  0
    9.5724   46.0768   31.3095 H   0  0  0  0  0  0  0  0  0  0  0  0
    9.6399   42.7592   30.1950 H   0  0  0  0  0  0  0  0  0  0  0  0
    7.0917   45.5261   32.3028 H   0  0  0  0  0  0  0  0  0  0  0  0
    7.6791   41.3964   29.6190 H   0  0  0  0  0  0  0  0  0  0  0  0
    5.1397   44.1758   31.7212 H   0  0  0  0  0  0  0  0  0  0  0  0
    3.5025   43.0953   30.2093 H   0  0  0  0  0  0  0  0  0  0  0  0
    3.7257   42.1334   31.7393 H   0  0  0  0  0  0  0  0  0  0  0  0
    3.1831   41.3204   30.2236 H   0  0  0  0  0  0  0  0  0  0  0  0
   11.3807   41.5487   31.4755 H   0  0  0  0  0  0  0  0  0  0  0  0
    9.8239   40.7085   31.7645 H   0  0  0  0  0  0  0  0  0  0  0  0
   11.7285   39.5301   30.3519 H   0  0  0  0  0  0  0  0  0  0  0  0
   10.1136   38.2707   32.6382 H   0  0  0  0  0  0  0  0  0  0  0  0
   13.6727   37.4639   31.2242 H   0  0  0  0  0  0  0  0  0  0  0  0
   10.0535   38.1114   29.7639 H   0  0  0  0  0  0  0  0  0  0  0  0
   11.2648   36.3130   32.5103 H   0  0  0  0  0  0  0  0  0  0  0  0
   12.1553   35.5036   30.6308 H   0  0  0  0  0  0  0  0  0  0  0  0
   12.3362   38.3585   34.7451 H   0  0  0  0  0  0  0  0  0  0  0  0
   16.7574   34.1788   32.4619 H   0  0  0  0  0  0  0  0  0  0  0  0
   16.6366   34.5314   37.1415 H   0  0  0  0  0  0  0  0  0  0  0  0
   15.3533   35.7353   37.5139 H   0  0  0  0  0  0  0  0  0  0  0  0
  1  2  2  0
  1  3  1  0
  3  4  1  0
  4  5  1  0
  6  1  1  0
  7  6  1  0
  6  8  1  0
  8  9  1  0
  9 10  2  0
 11  9  1  0
 10 12  1  0
 13 11  2  0
 12 14  2  0
 14 13  1  0
 14 15  1  0
 15 16  1  0
  4 17  2  0
  4 18  1  0
 19 18  1  0
 19 20  1  0
 20 21  1  0
 20 22  1  0
 21 23  1  0
 22 24  1  0
 22 25  1  0
 25 23  1  0
 23 26  1  0
 25 27  1  0
 28 26  1  0
 29 26  1  0
 30 28  2  0
 28 31  1  0
 32 29  2  0
 33 30  1  0
 31 34  2  0
 31 32  1  0
 35 33  2  0
 35 34  1  0
 34 36  1  0
  6 37  1  1
  7 38  1  0
  7 39  1  0
  8 40  1  0
  8 41  1  0
 10 42  1  0
 11 43  1  0
 12 44  1  0
 13 45  1  0
 16 46  1  0
 16 47  1  0
 16 48  1  0
 19 49  1  0
 19 50  1  0
 20 51  1  0
 22 52  1  0
 23 53  1  0
 24 54  1  0
 25 55  1  0
 27 56  1  0
 29 57  1  0
 33 58  1  0
 36 59  1  0
 36 60  1  0
M  CHG  1   5  -1
M  END
>  <EmbedRMS>  (18) 
0.08841395354011491

$$$$

     RDKit          3D

 60 63  0  0  0  0  0  0  0  0999 V2000
   10.2879   43.7719   33.8024 C   0  0  0  0  0  0  0  0  0  0  0  0
   11.4129   43.5866   34.3535 O   0  0  0  0  0  0  0  0  0  0  0  0
    9.3633   42.7344   33.7122 O   0  0  0  0  0  0  0  0  0  0  0  0
    9.8852   41.2346   34.2857 P   0  0  0  0  0  5  0  0  0  0  0  0
   10.3686   41.4660   35.8757 O   0  0  0  0  0  1  0  0  0  0  0  0
    9.9690   45.1017   33.2138 C   0  0  1  0  0  0  0  0  0  0  0  0
   11.0574   46.0377   33.5062 N   0  0  0  0  0  0  0  0  0  0  0  0
    9.7801   44.9507   31.6898 C   0  0  0  0  0  0  0  0  0  0  0  0
    9.2588   46.2160   31.0566 C   0  0  0  0  0  0  0  0  0  0  0  0
   10.1248   47.0757   30.3630 C   0  0  0  0  0  0  0  0  0  0  0  0
    7.9037   46.5592   31.1791 C   0  0  0  0  0  0  0  0  0  0  0  0
    9.6411   48.2572   29.7930 C   0  0  0  0  0  0  0  0  0  0  0  0
    7.4206   47.7402   30.6088 C   0  0  0  0  0  0  0  0  0  0  0  0
    8.2801   48.5977   29.9123 C   0  0  0  0  0  0  0  0  0  0  0  0
    7.7464   49.7708   29.3584 O   0  0  0  0  0  0  0  0  0  0  0  0
    8.5025   50.7305   28.6272 C   0  0  0  0  0  0  0  0  0  0  0  0
    8.8079   40.1915   34.2093 O   0  0  0  0  0  0  0  0  0  0  0  0
   11.2365   40.7937   33.3657 O   0  0  0  0  0  0  0  0  0  0  0  0
   10.9125   40.6863   31.9933 C   0  0  0  0  0  0  0  0  0  0  0  0
   11.5158   39.3782   31.4399 C   0  0  0  0  0  0  0  0  0  0  0  0
   12.7465   39.0863   32.0746 O   0  0  0  0  0  0  0  0  0  0  0  0
   10.6043   38.1871   31.6670 C   0  0  0  0  0  0  0  0  0  0  0  0
   12.9343   37.6798   32.0283 C   0  0  0  0  0  0  0  0  0  0  0  0
    9.6377   38.0920   30.6487 O   0  0  0  0  0  0  0  0  0  0  0  0
   11.5760   37.0134   31.7057 C   0  0  0  0  0  0  0  0  0  0  0  0
   13.4909   37.2180   33.3233 N   0  0  0  0  0  0  0  0  0  0  0  0
   11.6234   36.3375   30.4685 O   0  0  0  0  0  0  0  0  0  0  0  0
   14.4764   36.3273   33.5727 C   0  0  0  0  0  0  0  0  0  0  0  0
   13.1182   37.6317   34.5686 C   0  0  0  0  0  0  0  0  0  0  0  0
   15.2065   35.6139   32.6738 N   0  0  0  0  0  0  0  0  0  0  0  0
   14.6735   36.2276   34.9181 C   0  0  0  0  0  0  0  0  0  0  0  0
   13.8227   37.0458   35.5781 N   0  0  0  0  0  0  0  0  0  0  0  0
   16.1637   34.7593   33.1547 C   0  0  0  0  0  0  0  0  0  0  0  0
   15.6516   35.3493   35.4130 C   0  0  0  0  0  0  0  0  0  0  0  0
   16.3792   34.6310   34.5042 N   0  0  0  0  0  0  0  0  0  0  0  0
   15.9002   35.1934   36.8089 N   0  0  0  0  0  0  0  0  0  0  0  0
    9.0243   45.4685   33.6752 H   0  0  0  0  0  0  0  0  0  0  0  0
   11.1196   46.1581   34.5442 H   0  0  0  0  0  0  0  0  0  0  0  0
   10.7941   46.9817   33.1424 H   0  0  0  0  0  0  0  0  0  0  0  0
    9.0549   44.1338   31.4780 H   0  0  0  0  0  0  0  0  0  0  0  0
   10.7443   44.6508   31.2216 H   0  0  0  0  0  0  0  0  0  0  0  0
   11.1761   46.8338   30.2667 H   0  0  0  0  0  0  0  0  0  0  0  0
    7.2222   45.9119   31.7172 H   0  0  0  0  0  0  0  0  0  0  0  0
   10.3330   48.8985   29.2643 H   0  0  0  0  0  0  0  0  0  0  0  0
    6.3724   47.9918   30.7097 H   0  0  0  0  0  0  0  0  0  0  0  0
    9.3039   51.1544   29.2687 H   0  0  0  0  0  0  0  0  0  0  0  0
    7.8312   51.5535   28.3071 H   0  0  0  0  0  0  0  0  0  0  0  0
    8.9445   50.2602   27.7235 H   0  0  0  0  0  0  0  0  0  0  0  0
    9.8221   40.7218   31.7582 H   0  0  0  0  0  0  0  0  0  0  0  0
   11.3835   41.5432   31.4658 H   0  0  0  0  0  0  0  0  0  0  0  0
   11.6981   39.5023   30.3473 H   0  0  0  0  0  0  0  0  0  0  0  0
   10.1090   38.2773   32.6628 H   0  0  0  0  0  0  0  0  0  0  0  0
   13.6670   37.4557   31.2213 H   0  0  0  0  0  0  0  0  0  0  0  0
    8.9778   37.4159   30.9531 H   0  0  0  0  0  0  0  0  0  0  0  0
   11.2860   36.3046   32.5178 H   0  0  0  0  0  0  0  0  0  0  0  0
   10.8690   35.6922   30.4658 H   0  0  0  0  0  0  0  0  0  0  0  0
   12.3356   38.3588   34.7441 H   0  0  0  0  0  0  0  0  0  0  0  0
   16.7571   34.1787   32.4619 H   0  0  0  0  0  0  0  0  0  0  0  0
   16.6361   34.5315   37.1414 H   0  0  0  0  0  0  0  0  0  0  0  0
   15.3530   35.7358   37.5137 H   0  0  0  0  0  0  0  0  0  0  0  0
  1  2  2  0
  1  3  1  0
  3  4  1  0
  4  5  1  0
  6  1  1  0
  7  6  1  0
  6  8  1  0
  8  9  1  0
  9 10  2  0
 11  9  1  0
 10 12  1  0
 13 11  2  0
 12 14  2  0
 14 13  1  0
 14 15  1  0
 15 16  1  0
  4 17  2  0
  4 18  1  0
 19 18  1  0
 19 20  1  0
 20 21  1  0
 20 22  1  0
 21 23  1  0
 22 24  1  0
 22 25  1  0
 25 23  1  0
 23 26  1  0
 25 27  1  0
 28 26  1  0
 29 26  1  0
 30 28  2  0
 28 31  1  0
 32 29  2  0
 33 30  1  0
 31 34  2  0
 31 32  1  0
 35 33  2  0
 35 34  1  0
 34 36  1  0
  6 37  1  1
  7 38  1  0
  7 39  1  0
  8 40  1  0
  8 41  1  0
 10 42  1  0
 11 43  1  0
 12 44  1  0
 13 45  1  0
 16 46  1  0
 16 47  1  0
 16 48  1  0
 19 49  1  0
 19 50  1  0
 20 51  1  0
 22 52  1  0
 23 53  1  0
 24 54  1  0
 25 55  1  0
 27 56  1  0
 29 57  1  0
 33 58  1  0
 36 59  1  0
 36 60  1  0
M  CHG  1   5  -1
M  END
>  <EmbedRMS>  (19) 
0.08894897475737949

$$$$

     RDKit          3D

 60 63  0  0  0  0  0  0  0  0999 V2000
   10.2871   43.7692   33.7899 C   0  0  0  0  0  0  0  0  0  0  0  0
   11.4140   43.5806   34.3362 O   0  0  0  0  0  0  0  0  0  0  0  0
    9.3643   42.7311   33.6958 O   0  0  0  0  0  0  0  0  0  0  0  0
    9.8820   41.2340   34.2840 P   0  0  0  0  0  5  0  0  0  0  0  0
   10.3606   41.4724   35.8747 O   0  0  0  0  0  1  0  0  0  0  0  0
    9.9371   45.1296   33.2921 C   0  0  1  0  0  0  0  0  0  0  0  0
   11.0775   46.0313   33.4635 N   0  0  0  0  0  0  0  0  0  0  0  0
    9.4244   45.1267   31.8312 C   0  0  0  0  0  0  0  0  0  0  0  0
   10.2800   44.3557   30.8493 C   0  0  0  0  0  0  0  0  0  0  0  0
   11.6132   44.7237   30.6042 C   0  0  0  0  0  0  0  0  0  0  0  0
    9.7146   43.3089   30.1011 C   0  0  0  0  0  0  0  0  0  0  0  0
   12.3790   44.0287   29.6628 C   0  0  0  0  0  0  0  0  0  0  0  0
   10.4758   42.6256   29.1487 C   0  0  0  0  0  0  0  0  0  0  0  0
   11.8138   42.9685   28.9294 C   0  0  0  0  0  0  0  0  0  0  0  0
   12.5425   42.2360   27.9809 O   0  0  0  0  0  0  0  0  0  0  0  0
   13.9149   42.4592   27.6750 C   0  0  0  0  0  0  0  0  0  0  0  0
    8.8047   40.1912   34.2086 O   0  0  0  0  0  0  0  0  0  0  0  0
   11.2374   40.7806   33.3791 O   0  0  0  0  0  0  0  0  0  0  0  0
   10.9312   40.6918   32.0035 C   0  0  0  0  0  0  0  0  0  0  0  0
   11.5205   39.3835   31.4430 C   0  0  0  0  0  0  0  0  0  0  0  0
   12.7530   39.0877   32.0741 O   0  0  0  0  0  0  0  0  0  0  0  0
   10.6042   38.1924   31.6663 C   0  0  0  0  0  0  0  0  0  0  0  0
   12.9405   37.6819   32.0272 C   0  0  0  0  0  0  0  0  0  0  0  0
    9.6385   38.0821   30.6475 O   0  0  0  0  0  0  0  0  0  0  0  0
   11.5796   37.0212   31.6938 C   0  0  0  0  0  0  0  0  0  0  0  0
   13.4900   37.2168   33.3236 N   0  0  0  0  0  0  0  0  0  0  0  0
   11.6103   36.3200   30.4682 O   0  0  0  0  0  0  0  0  0  0  0  0
   14.4759   36.3267   33.5731 C   0  0  0  0  0  0  0  0  0  0  0  0
   13.1175   37.6314   34.5685 C   0  0  0  0  0  0  0  0  0  0  0  0
   15.2065   35.6138   32.6743 N   0  0  0  0  0  0  0  0  0  0  0  0
   14.6730   36.2273   34.9185 C   0  0  0  0  0  0  0  0  0  0  0  0
   13.8221   37.0457   35.5782 N   0  0  0  0  0  0  0  0  0  0  0  0
   16.1639   34.7595   33.1550 C   0  0  0  0  0  0  0  0  0  0  0  0
   15.6515   35.3493   35.4134 C   0  0  0  0  0  0  0  0  0  0  0  0
   16.3792   34.6311   34.5045 N   0  0  0  0  0  0  0  0  0  0  0  0
   15.9002   35.1935   36.8092 N   0  0  0  0  0  0  0  0  0  0  0  0
    9.1038   45.5036   33.9296 H   0  0  0  0  0  0  0  0  0  0  0  0
   10.8074   46.9805   33.1167 H   0  0  0  0  0  0  0  0  0  0  0  0
   11.2568   46.1521   34.4877 H   0  0  0  0  0  0  0  0  0  0  0  0
    9.3245   46.1723   31.4680 H   0  0  0  0  0  0  0  0  0  0  0  0
    8.3924   44.7110   31.8370 H   0  0  0  0  0  0  0  0  0  0  0  0
   12.0629   45.5540   31.1304 H   0  0  0  0  0  0  0  0  0  0  0  0
    8.6832   43.0167   30.2541 H   0  0  0  0  0  0  0  0  0  0  0  0
   13.4059   44.3295   29.5069 H   0  0  0  0  0  0  0  0  0  0  0  0
   10.0276   41.8145   28.5889 H   0  0  0  0  0  0  0  0  0  0  0  0
   14.2363   41.7334   26.9003 H   0  0  0  0  0  0  0  0  0  0  0  0
   14.5373   42.3097   28.5826 H   0  0  0  0  0  0  0  0  0  0  0  0
   14.0557   43.4872   27.2794 H   0  0  0  0  0  0  0  0  0  0  0  0
    9.8479   40.7621   31.7490 H   0  0  0  0  0  0  0  0  0  0  0  0
   11.4446   41.5372   31.5039 H   0  0  0  0  0  0  0  0  0  0  0  0
   11.6998   39.5141   30.3506 H   0  0  0  0  0  0  0  0  0  0  0  0
   10.1125   38.2617   32.6660 H   0  0  0  0  0  0  0  0  0  0  0  0
   13.6799   37.4594   31.2262 H   0  0  0  0  0  0  0  0  0  0  0  0
    8.9087   38.7142   30.8765 H   0  0  0  0  0  0  0  0  0  0  0  0
   11.2815   36.3073   32.4931 H   0  0  0  0  0  0  0  0  0  0  0  0
   11.8839   36.9597   29.7593 H   0  0  0  0  0  0  0  0  0  0  0  0
   12.3359   38.3596   34.7437 H   0  0  0  0  0  0  0  0  0  0  0  0
   16.7575   34.1791   32.4623 H   0  0  0  0  0  0  0  0  0  0  0  0
   15.3528   35.7357   37.5140 H   0  0  0  0  0  0  0  0  0  0  0  0
   16.6362   34.5319   37.1417 H   0  0  0  0  0  0  0  0  0  0  0  0
  1  2  2  0
  1  3  1  0
  3  4  1  0
  4  5  1  0
  6  1  1  0
  7  6  1  0
  6  8  1  0
  8  9  1  0
  9 10  2  0
 11  9  1  0
 10 12  1  0
 13 11  2  0
 12 14  2  0
 14 13  1  0
 14 15  1  0
 15 16  1  0
  4 17  2  0
  4 18  1  0
 19 18  1  0
 19 20  1  0
 20 21  1  0
 20 22  1  0
 21 23  1  0
 22 24  1  0
 22 25  1  0
 25 23  1  0
 23 26  1  0
 25 27  1  0
 28 26  1  0
 29 26  1  0
 30 28  2  0
 28 31  1  0
 32 29  2  0
 33 30  1  0
 31 34  2  0
 31 32  1  0
 35 33  2  0
 35 34  1  0
 34 36  1  0
  6 37  1  1
  7 38  1  0
  7 39  1  0
  8 40  1  0
  8 41  1  0
 10 42  1  0
 11 43  1  0
 12 44  1  0
 13 45  1  0
 16 46  1  0
 16 47  1  0
 16 48  1  0
 19 49  1  0
 19 50  1  0
 20 51  1  0
 22 52  1  0
 23 53  1  0
 24 54  1  0
 25 55  1  0
 27 56  1  0
 29 57  1  0
 33 58  1  0
 36 59  1  0
 36 60  1  0
M  CHG  1   5  -1
M  END
>  <EmbedRMS>  (20) 
0.09068772194734433

$$$$

     RDKit          3D

 60 63  0  0  0  0  0  0  0  0999 V2000
   10.2876   43.7723   33.7998 C   0  0  0  0  0  0  0  0  0  0  0  0
   11.4101   43.5904   34.3568 O   0  0  0  0  0  0  0  0  0  0  0  0
    9.3641   42.7338   33.7092 O   0  0  0  0  0  0  0  0  0  0  0  0
    9.8853   41.2350   34.2859 P   0  0  0  0  0  5  0  0  0  0  0  0
   10.3679   41.4675   35.8759 O   0  0  0  0  0  1  0  0  0  0  0  0
    9.9621   45.1045   33.2252 C   0  0  1  0  0  0  0  0  0  0  0  0
   11.0640   46.0309   33.4991 N   0  0  0  0  0  0  0  0  0  0  0  0
    9.6859   44.9771   31.7107 C   0  0  0  0  0  0  0  0  0  0  0  0
    9.2385   46.2859   31.1119 C   0  0  0  0  0  0  0  0  0  0  0  0
   10.1480   47.1004   30.4199 C   0  0  0  0  0  0  0  0  0  0  0  0
    7.9142   46.7205   31.2754 C   0  0  0  0  0  0  0  0  0  0  0  0
    9.7348   48.3255   29.8889 C   0  0  0  0  0  0  0  0  0  0  0  0
    7.5014   47.9459   30.7440 C   0  0  0  0  0  0  0  0  0  0  0  0
    8.4130   48.7591   30.0439 C   0  0  0  0  0  0  0  0  0  0  0  0
    8.0484   49.9965   29.4926 O   0  0  0  0  0  0  0  0  0  0  0  0
    6.7434   50.5600   29.5757 C   0  0  0  0  0  0  0  0  0  0  0  0
    8.8082   40.1917   34.2095 O   0  0  0  0  0  0  0  0  0  0  0  0
   11.2367   40.7929   33.3676 O   0  0  0  0  0  0  0  0  0  0  0  0
   10.9139   40.6893   31.9949 C   0  0  0  0  0  0  0  0  0  0  0  0
   11.5254   39.3878   31.4368 C   0  0  0  0  0  0  0  0  0  0  0  0
   12.7485   39.0900   32.0824 O   0  0  0  0  0  0  0  0  0  0  0  0
   10.6120   38.1897   31.6461 C   0  0  0  0  0  0  0  0  0  0  0  0
   12.9371   37.6833   32.0302 C   0  0  0  0  0  0  0  0  0  0  0  0
    9.6149   38.0841   30.6537 O   0  0  0  0  0  0  0  0  0  0  0  0
   11.5792   37.0141   31.7014 C   0  0  0  0  0  0  0  0  0  0  0  0
   13.4906   37.2172   33.3242 N   0  0  0  0  0  0  0  0  0  0  0  0
   11.6217   36.3255   30.4726 O   0  0  0  0  0  0  0  0  0  0  0  0
   14.4763   36.3268   33.5730 C   0  0  0  0  0  0  0  0  0  0  0  0
   13.1181   37.6310   34.5695 C   0  0  0  0  0  0  0  0  0  0  0  0
   15.2065   35.6138   32.6739 N   0  0  0  0  0  0  0  0  0  0  0  0
   14.6735   36.2270   34.9184 C   0  0  0  0  0  0  0  0  0  0  0  0
   13.8228   37.0451   35.5787 N   0  0  0  0  0  0  0  0  0  0  0  0
   16.1638   34.7594   33.1546 C   0  0  0  0  0  0  0  0  0  0  0  0
   15.6518   35.3489   35.4131 C   0  0  0  0  0  0  0  0  0  0  0  0
   16.3794   34.6308   34.5041 N   0  0  0  0  0  0  0  0  0  0  0  0
   15.9006   35.1931   36.8090 N   0  0  0  0  0  0  0  0  0  0  0  0
    9.0446   45.4726   33.7360 H   0  0  0  0  0  0  0  0  0  0  0  0
   10.7423   47.0072   33.3074 H   0  0  0  0  0  0  0  0  0  0  0  0
   11.8653   45.8305   32.8560 H   0  0  0  0  0  0  0  0  0  0  0  0
   10.5949   44.6030   31.1887 H   0  0  0  0  0  0  0  0  0  0  0  0
    8.8881   44.2209   31.5390 H   0  0  0  0  0  0  0  0  0  0  0  0
   11.1778   46.7894   30.2946 H   0  0  0  0  0  0  0  0  0  0  0  0
    7.2020   46.1098   31.8167 H   0  0  0  0  0  0  0  0  0  0  0  0
   10.4465   48.9434   29.3560 H   0  0  0  0  0  0  0  0  0  0  0  0
    6.4738   48.2520   30.8849 H   0  0  0  0  0  0  0  0  0  0  0  0
    6.0067   49.8913   29.0825 H   0  0  0  0  0  0  0  0  0  0  0  0
    6.4635   50.7197   30.6385 H   0  0  0  0  0  0  0  0  0  0  0  0
    6.7378   51.5397   29.0558 H   0  0  0  0  0  0  0  0  0  0  0  0
    9.8235   40.7185   31.7593 H   0  0  0  0  0  0  0  0  0  0  0  0
   11.3794   41.5518   31.4715 H   0  0  0  0  0  0  0  0  0  0  0  0
   11.7286   39.5295   30.3508 H   0  0  0  0  0  0  0  0  0  0  0  0
   10.1135   38.2721   32.6379 H   0  0  0  0  0  0  0  0  0  0  0  0
   13.6723   37.4646   31.2240 H   0  0  0  0  0  0  0  0  0  0  0  0
   10.0536   38.1090   29.7638 H   0  0  0  0  0  0  0  0  0  0  0  0
   11.2645   36.3139   32.5108 H   0  0  0  0  0  0  0  0  0  0  0  0
   12.1552   35.5037   30.6317 H   0  0  0  0  0  0  0  0  0  0  0  0
   12.3362   38.3588   34.7451 H   0  0  0  0  0  0  0  0  0  0  0  0
   16.7572   34.1789   32.4618 H   0  0  0  0  0  0  0  0  0  0  0  0
   16.6366   34.5314   37.1414 H   0  0  0  0  0  0  0  0  0  0  0  0
   15.3533   35.7353   37.5139 H   0  0  0  0  0  0  0  0  0  0  0  0
  1  2  2  0
  1  3  1  0
  3  4  1  0
  4  5  1  0
  6  1  1  0
  7  6  1  0
  6  8  1  0
  8  9  1  0
  9 10  2  0
 11  9  1  0
 10 12  1  0
 13 11  2  0
 12 14  2  0
 14 13  1  0
 14 15  1  0
 15 16  1  0
  4 17  2  0
  4 18  1  0
 19 18  1  0
 19 20  1  0
 20 21  1  0
 20 22  1  0
 21 23  1  0
 22 24  1  0
 22 25  1  0
 25 23  1  0
 23 26  1  0
 25 27  1  0
 28 26  1  0
 29 26  1  0
 30 28  2  0
 28 31  1  0
 32 29  2  0
 33 30  1  0
 31 34  2  0
 31 32  1  0
 35 33  2  0
 35 34  1  0
 34 36  1  0
  6 37  1  1
  7 38  1  0
  7 39  1  0
  8 40  1  0
  8 41  1  0
 10 42  1  0
 11 43  1  0
 12 44  1  0
 13 45  1  0
 16 46  1  0
 16 47  1  0
 16 48  1  0
 19 49  1  0
 19 50  1  0
 20 51  1  0
 22 52  1  0
 23 53  1  0
 24 54  1  0
 25 55  1  0
 27 56  1  0
 29 57  1  0
 33 58  1  0
 36 59  1  0
 36 60  1  0
M  CHG  1   5  -1
M  END
>  <EmbedRMS>  (21) 
0.0875305072992183

$$$$

     RDKit          3D

 60 63  0  0  0  0  0  0  0  0999 V2000
   10.2897   43.7707   33.7892 C   0  0  0  0  0  0  0  0  0  0  0  0
   11.4117   43.5888   34.3476 O   0  0  0  0  0  0  0  0  0  0  0  0
    9.3643   42.7333   33.7092 O   0  0  0  0  0  0  0  0  0  0  0  0
    9.8854   41.2351   34.2871 P   0  0  0  0  0  5  0  0  0  0  0  0
   10.3669   41.4685   35.8771 O   0  0  0  0  0  1  0  0  0  0  0  0
    9.9592   45.1129   33.2302 C   0  0  1  0  0  0  0  0  0  0  0  0
   11.0626   46.0343   33.5078 N   0  0  0  0  0  0  0  0  0  0  0  0
    9.6743   45.0595   31.7095 C   0  0  0  0  0  0  0  0  0  0  0  0
    8.4385   44.2614   31.3683 C   0  0  0  0  0  0  0  0  0  0  0  0
    7.1714   44.6960   31.7888 C   0  0  0  0  0  0  0  0  0  0  0  0
    8.5424   43.0770   30.6224 C   0  0  0  0  0  0  0  0  0  0  0  0
    6.0312   43.9422   31.4950 C   0  0  0  0  0  0  0  0  0  0  0  0
    7.4033   42.3219   30.3321 C   0  0  0  0  0  0  0  0  0  0  0  0
    6.1414   42.7426   30.7661 C   0  0  0  0  0  0  0  0  0  0  0  0
    5.0293   41.9473   30.4525 O   0  0  0  0  0  0  0  0  0  0  0  0
    3.6912   42.2514   30.8324 C   0  0  0  0  0  0  0  0  0  0  0  0
    8.8081   40.1921   34.2097 O   0  0  0  0  0  0  0  0  0  0  0  0
   11.2380   40.7918   33.3710 O   0  0  0  0  0  0  0  0  0  0  0  0
   10.9168   40.6885   31.9985 C   0  0  0  0  0  0  0  0  0  0  0  0
   11.5172   39.3823   31.4423 C   0  0  0  0  0  0  0  0  0  0  0  0
   12.7493   39.0893   32.0763 O   0  0  0  0  0  0  0  0  0  0  0  0
   10.6034   38.1895   31.6658 C   0  0  0  0  0  0  0  0  0  0  0  0
   12.9400   37.6835   32.0278 C   0  0  0  0  0  0  0  0  0  0  0  0
    9.6377   38.0787   30.6468 O   0  0  0  0  0  0  0  0  0  0  0  0
   11.5804   37.0202   31.6935 C   0  0  0  0  0  0  0  0  0  0  0  0
   13.4901   37.2176   33.3238 N   0  0  0  0  0  0  0  0  0  0  0  0
   11.6120   36.3194   30.4678 O   0  0  0  0  0  0  0  0  0  0  0  0
   14.4758   36.3271   33.5731 C   0  0  0  0  0  0  0  0  0  0  0  0
   13.1175   37.6317   34.5688 C   0  0  0  0  0  0  0  0  0  0  0  0
   15.2064   35.6141   32.6742 N   0  0  0  0  0  0  0  0  0  0  0  0
   14.6729   36.2274   34.9185 C   0  0  0  0  0  0  0  0  0  0  0  0
   13.8221   37.0457   35.5784 N   0  0  0  0  0  0  0  0  0  0  0  0
   16.1637   34.7597   33.1549 C   0  0  0  0  0  0  0  0  0  0  0  0
   15.6514   35.3493   35.4133 C   0  0  0  0  0  0  0  0  0  0  0  0
   16.3791   34.6312   34.5044 N   0  0  0  0  0  0  0  0  0  0  0  0
   15.9001   35.1934   36.8091 N   0  0  0  0  0  0  0  0  0  0  0  0
    9.0565   45.4850   33.7622 H   0  0  0  0  0  0  0  0  0  0  0  0
   10.7578   47.0044   33.2616 H   0  0  0  0  0  0  0  0  0  0  0  0
   11.8793   45.8019   32.8952 H   0  0  0  0  0  0  0  0  0  0  0  0
    9.5284   46.0944   31.3304 H   0  0  0  0  0  0  0  0  0  0  0  0
   10.5633   44.6473   31.1822 H   0  0  0  0  0  0  0  0  0  0  0  0
    7.0663   45.6171   32.3482 H   0  0  0  0  0  0  0  0  0  0  0  0
    9.5055   42.7345   30.2672 H   0  0  0  0  0  0  0  0  0  0  0  0
    5.0706   44.2999   31.8396 H   0  0  0  0  0  0  0  0  0  0  0  0
    7.5018   41.4041   29.7661 H   0  0  0  0  0  0  0  0  0  0  0  0
    3.6089   42.2944   31.9390 H   0  0  0  0  0  0  0  0  0  0  0  0
    3.3788   43.2199   30.3877 H   0  0  0  0  0  0  0  0  0  0  0  0
    3.0176   41.4543   30.4566 H   0  0  0  0  0  0  0  0  0  0  0  0
    9.8281   40.7272   31.7641 H   0  0  0  0  0  0  0  0  0  0  0  0
   11.3927   41.5450   31.4751 H   0  0  0  0  0  0  0  0  0  0  0  0
   11.6983   39.5106   30.3502 H   0  0  0  0  0  0  0  0  0  0  0  0
   10.1120   38.2577   32.6658 H   0  0  0  0  0  0  0  0  0  0  0  0
   13.6801   37.4632   31.2267 H   0  0  0  0  0  0  0  0  0  0  0  0
    8.8985   38.6965   30.8845 H   0  0  0  0  0  0  0  0  0  0  0  0
   11.2831   36.3057   32.4926 H   0  0  0  0  0  0  0  0  0  0  0  0
   11.8861   36.9591   29.7592 H   0  0  0  0  0  0  0  0  0  0  0  0
   12.3360   38.3600   34.7442 H   0  0  0  0  0  0  0  0  0  0  0  0
   16.7572   34.1793   32.4621 H   0  0  0  0  0  0  0  0  0  0  0  0
   16.6362   34.5318   37.1416 H   0  0  0  0  0  0  0  0  0  0  0  0
   15.3528   35.7356   37.5140 H   0  0  0  0  0  0  0  0  0  0  0  0
  1  2  2  0
  1  3  1  0
  3  4  1  0
  4  5  1  0
  6  1  1  0
  7  6  1  0
  6  8  1  0
  8  9  1  0
  9 10  2  0
 11  9  1  0
 10 12  1  0
 13 11  2  0
 12 14  2  0
 14 13  1  0
 14 15  1  0
 15 16  1  0
  4 17  2  0
  4 18  1  0
 19 18  1  0
 19 20  1  0
 20 21  1  0
 20 22  1  0
 21 23  1  0
 22 24  1  0
 22 25  1  0
 25 23  1  0
 23 26  1  0
 25 27  1  0
 28 26  1  0
 29 26  1  0
 30 28  2  0
 28 31  1  0
 32 29  2  0
 33 30  1  0
 31 34  2  0
 31 32  1  0
 35 33  2  0
 35 34  1  0
 34 36  1  0
  6 37  1  1
  7 38  1  0
  7 39  1  0
  8 40  1  0
  8 41  1  0
 10 42  1  0
 11 43  1  0
 12 44  1  0
 13 45  1  0
 16 46  1  0
 16 47  1  0
 16 48  1  0
 19 49  1  0
 19 50  1  0
 20 51  1  0
 22 52  1  0
 23 53  1  0
 24 54  1  0
 25 55  1  0
 27 56  1  0
 29 57  1  0
 33 58  1  0
 36 59  1  0
 36 60  1  0
M  CHG  1   5  -1
M  END
>  <EmbedRMS>  (22) 
0.08856557765606511

$$$$

     RDKit          3D

 60 63  0  0  0  0  0  0  0  0999 V2000
   10.2904   43.7683   33.8032 C   0  0  0  0  0  0  0  0  0  0  0  0
   11.4117   43.5808   34.3603 O   0  0  0  0  0  0  0  0  0  0  0  0
    9.3641   42.7329   33.7098 O   0  0  0  0  0  0  0  0  0  0  0  0
    9.8837   41.2335   34.2864 P   0  0  0  0  0  5  0  0  0  0  0  0
   10.3661   41.4658   35.8765 O   0  0  0  0  0  1  0  0  0  0  0  0
    9.9697   45.1050   33.2282 C   0  0  1  0  0  0  0  0  0  0  0  0
   11.0569   46.0521   33.4894 N   0  0  0  0  0  0  0  0  0  0  0  0
    9.7168   44.9858   31.7145 C   0  0  0  0  0  0  0  0  0  0  0  0
    9.2987   46.3071   31.1218 C   0  0  0  0  0  0  0  0  0  0  0  0
    7.9631   46.7286   31.2080 C   0  0  0  0  0  0  0  0  0  0  0  0
   10.2470   47.1484   30.5195 C   0  0  0  0  0  0  0  0  0  0  0  0
    7.5787   47.9658   30.6836 C   0  0  0  0  0  0  0  0  0  0  0  0
    9.8620   48.3860   29.9952 C   0  0  0  0  0  0  0  0  0  0  0  0
    8.5195   48.8035   30.0734 C   0  0  0  0  0  0  0  0  0  0  0  0
    8.0834   50.0351   29.5626 O   0  0  0  0  0  0  0  0  0  0  0  0
    8.9290   50.9832   28.9196 C   0  0  0  0  0  0  0  0  0  0  0  0
    8.8066   40.1904   34.2091 O   0  0  0  0  0  0  0  0  0  0  0  0
   11.2357   40.7922   33.3689 O   0  0  0  0  0  0  0  0  0  0  0  0
   10.9140   40.6907   31.9961 C   0  0  0  0  0  0  0  0  0  0  0  0
   11.5263   39.3905   31.4377 C   0  0  0  0  0  0  0  0  0  0  0  0
   12.7502   39.0923   32.0843 O   0  0  0  0  0  0  0  0  0  0  0  0
   10.6119   38.1919   31.6452 C   0  0  0  0  0  0  0  0  0  0  0  0
   12.9427   37.6858   32.0296 C   0  0  0  0  0  0  0  0  0  0  0  0
    9.6069   38.0860   30.6601 O   0  0  0  0  0  0  0  0  0  0  0  0
   11.5844   37.0190   31.6880 C   0  0  0  0  0  0  0  0  0  0  0  0
   13.4898   37.2166   33.3250 N   0  0  0  0  0  0  0  0  0  0  0  0
   11.6202   36.3065   30.4694 O   0  0  0  0  0  0  0  0  0  0  0  0
   14.4758   36.3265   33.5738 C   0  0  0  0  0  0  0  0  0  0  0  0
   13.1175   37.6309   34.5699 C   0  0  0  0  0  0  0  0  0  0  0  0
   15.2064   35.6140   32.6745 N   0  0  0  0  0  0  0  0  0  0  0  0
   14.6731   36.2268   34.9190 C   0  0  0  0  0  0  0  0  0  0  0  0
   13.8224   37.0450   35.5792 N   0  0  0  0  0  0  0  0  0  0  0  0
   16.1639   34.7596   33.1550 C   0  0  0  0  0  0  0  0  0  0  0  0
   15.6517   35.3489   35.4135 C   0  0  0  0  0  0  0  0  0  0  0  0
   16.3794   34.6310   34.5045 N   0  0  0  0  0  0  0  0  0  0  0  0
   15.9006   35.1931   36.8093 N   0  0  0  0  0  0  0  0  0  0  0  0
    9.0440   45.4767   33.7206 H   0  0  0  0  0  0  0  0  0  0  0  0
   11.1828   46.1617   34.5226 H   0  0  0  0  0  0  0  0  0  0  0  0
   11.9531   45.6972   33.0808 H   0  0  0  0  0  0  0  0  0  0  0  0
    8.9148   44.2381   31.5253 H   0  0  0  0  0  0  0  0  0  0  0  0
   10.6326   44.6094   31.2061 H   0  0  0  0  0  0  0  0  0  0  0  0
    7.2204   46.0992   31.6826 H   0  0  0  0  0  0  0  0  0  0  0  0
   11.2854   46.8470   30.4576 H   0  0  0  0  0  0  0  0  0  0  0  0
    6.5442   48.2771   30.7540 H   0  0  0  0  0  0  0  0  0  0  0  0
   10.6152   49.0105   29.5346 H   0  0  0  0  0  0  0  0  0  0  0  0
    8.3237   51.8619   28.6164 H   0  0  0  0  0  0  0  0  0  0  0  0
    9.3844   50.5346   28.0115 H   0  0  0  0  0  0  0  0  0  0  0  0
    9.7230   51.3222   29.6181 H   0  0  0  0  0  0  0  0  0  0  0  0
   11.3798   41.5540   31.4743 H   0  0  0  0  0  0  0  0  0  0  0  0
    9.8238   40.7197   31.7595 H   0  0  0  0  0  0  0  0  0  0  0  0
   11.7313   39.5346   30.3524 H   0  0  0  0  0  0  0  0  0  0  0  0
   10.1210   38.2684   32.6411 H   0  0  0  0  0  0  0  0  0  0  0  0
   13.6880   37.4717   31.2319 H   0  0  0  0  0  0  0  0  0  0  0  0
   10.0256   38.1756   29.7655 H   0  0  0  0  0  0  0  0  0  0  0  0
   11.2795   36.3128   32.4916 H   0  0  0  0  0  0  0  0  0  0  0  0
   11.9871   36.9102   29.7715 H   0  0  0  0  0  0  0  0  0  0  0  0
   12.3365   38.3597   34.7454 H   0  0  0  0  0  0  0  0  0  0  0  0
   16.7575   34.1795   32.4621 H   0  0  0  0  0  0  0  0  0  0  0  0
   16.6368   34.5316   37.1417 H   0  0  0  0  0  0  0  0  0  0  0  0
   15.3532   35.7351   37.5143 H   0  0  0  0  0  0  0  0  0  0  0  0
  1  2  2  0
  1  3  1  0
  3  4  1  0
  4  5  1  0
  6  1  1  0
  7  6  1  0
  6  8  1  0
  8  9  1  0
  9 10  2  0
 11  9  1  0
 10 12  1  0
 13 11  2  0
 12 14  2  0
 14 13  1  0
 14 15  1  0
 15 16  1  0
  4 17  2  0
  4 18  1  0
 19 18  1  0
 19 20  1  0
 20 21  1  0
 20 22  1  0
 21 23  1  0
 22 24  1  0
 22 25  1  0
 25 23  1  0
 23 26  1  0
 25 27  1  0
 28 26  1  0
 29 26  1  0
 30 28  2  0
 28 31  1  0
 32 29  2  0
 33 30  1  0
 31 34  2  0
 31 32  1  0
 35 33  2  0
 35 34  1  0
 34 36  1  0
  6 37  1  1
  7 38  1  0
  7 39  1  0
  8 40  1  0
  8 41  1  0
 10 42  1  0
 11 43  1  0
 12 44  1  0
 13 45  1  0
 16 46  1  0
 16 47  1  0
 16 48  1  0
 19 49  1  0
 19 50  1  0
 20 51  1  0
 22 52  1  0
 23 53  1  0
 24 54  1  0
 25 55  1  0
 27 56  1  0
 29 57  1  0
 33 58  1  0
 36 59  1  0
 36 60  1  0
M  CHG  1   5  -1
M  END
>  <EmbedRMS>  (23) 
0.08742473021228711

$$$$

     RDKit          3D

 60 63  0  0  0  0  0  0  0  0999 V2000
   10.2898   43.7707   33.7891 C   0  0  0  0  0  0  0  0  0  0  0  0
   11.4117   43.5888   34.3476 O   0  0  0  0  0  0  0  0  0  0  0  0
    9.3646   42.7331   33.7088 O   0  0  0  0  0  0  0  0  0  0  0  0
    9.8859   41.2348   34.2863 P   0  0  0  0  0  5  0  0  0  0  0  0
   10.3673   41.4683   35.8764 O   0  0  0  0  0  1  0  0  0  0  0  0
    9.9592   45.1129   33.2302 C   0  0  1  0  0  0  0  0  0  0  0  0
   11.0626   46.0343   33.5078 N   0  0  0  0  0  0  0  0  0  0  0  0
    9.6742   45.0597   31.7096 C   0  0  0  0  0  0  0  0  0  0  0  0
    8.4383   44.2616   31.3684 C   0  0  0  0  0  0  0  0  0  0  0  0
    8.5422   43.0771   30.6226 C   0  0  0  0  0  0  0  0  0  0  0  0
    7.1713   44.6963   31.7888 C   0  0  0  0  0  0  0  0  0  0  0  0
    7.4030   42.3221   30.3323 C   0  0  0  0  0  0  0  0  0  0  0  0
    6.0310   43.9425   31.4951 C   0  0  0  0  0  0  0  0  0  0  0  0
    6.1412   42.7429   30.7662 C   0  0  0  0  0  0  0  0  0  0  0  0
    5.0290   41.9477   30.4527 O   0  0  0  0  0  0  0  0  0  0  0  0
    3.6909   42.2519   30.8325 C   0  0  0  0  0  0  0  0  0  0  0  0
    8.8083   40.1920   34.2093 O   0  0  0  0  0  0  0  0  0  0  0  0
   11.2385   40.7912   33.3699 O   0  0  0  0  0  0  0  0  0  0  0  0
   10.9175   40.6874   31.9972 C   0  0  0  0  0  0  0  0  0  0  0  0
   11.5169   39.3800   31.4408 C   0  0  0  0  0  0  0  0  0  0  0  0
   12.7477   39.0862   32.0740 O   0  0  0  0  0  0  0  0  0  0  0  0
   10.6030   38.1887   31.6664 C   0  0  0  0  0  0  0  0  0  0  0  0
   12.9335   37.6797   32.0281 C   0  0  0  0  0  0  0  0  0  0  0  0
    9.6398   38.0779   30.6450 O   0  0  0  0  0  0  0  0  0  0  0  0
   11.5740   37.0153   31.7055 C   0  0  0  0  0  0  0  0  0  0  0  0
   13.4902   37.2177   33.3231 N   0  0  0  0  0  0  0  0  0  0  0  0
   11.6213   36.3376   30.4693 O   0  0  0  0  0  0  0  0  0  0  0  0
   14.4761   36.3273   33.5725 C   0  0  0  0  0  0  0  0  0  0  0  0
   13.1178   37.6316   34.5684 C   0  0  0  0  0  0  0  0  0  0  0  0
   15.2063   35.6139   32.6737 N   0  0  0  0  0  0  0  0  0  0  0  0
   14.6733   36.2277   34.9180 C   0  0  0  0  0  0  0  0  0  0  0  0
   13.8225   37.0458   35.5780 N   0  0  0  0  0  0  0  0  0  0  0  0
   16.1636   34.7594   33.1546 C   0  0  0  0  0  0  0  0  0  0  0  0
   15.6515   35.3494   35.4129 C   0  0  0  0  0  0  0  0  0  0  0  0
   16.3791   34.6311   34.5041 N   0  0  0  0  0  0  0  0  0  0  0  0
   15.9001   35.1935   36.8088 N   0  0  0  0  0  0  0  0  0  0  0  0
    9.0566   45.4849   33.7624 H   0  0  0  0  0  0  0  0  0  0  0  0
   11.8793   45.8020   32.8952 H   0  0  0  0  0  0  0  0  0  0  0  0
   10.7577   47.0044   33.2618 H   0  0  0  0  0  0  0  0  0  0  0  0
    9.5283   46.0946   31.3306 H   0  0  0  0  0  0  0  0  0  0  0  0
   10.5631   44.6474   31.1822 H   0  0  0  0  0  0  0  0  0  0  0  0
    9.5053   42.7345   30.2675 H   0  0  0  0  0  0  0  0  0  0  0  0
    7.0662   45.6175   32.3482 H   0  0  0  0  0  0  0  0  0  0  0  0
    7.5014   41.4042   29.7663 H   0  0  0  0  0  0  0  0  0  0  0  0
    5.0705   44.3003   31.8396 H   0  0  0  0  0  0  0  0  0  0  0  0
    3.0173   41.4548   30.4568 H   0  0  0  0  0  0  0  0  0  0  0  0
    3.6086   42.2949   31.9391 H   0  0  0  0  0  0  0  0  0  0  0  0
    3.3786   43.2204   30.3877 H   0  0  0  0  0  0  0  0  0  0  0  0
    9.8289   40.7271   31.7628 H   0  0  0  0  0  0  0  0  0  0  0  0
   11.3943   41.5432   31.4735 H   0  0  0  0  0  0  0  0  0  0  0  0
   11.6977   39.5057   30.3483 H   0  0  0  0  0  0  0  0  0  0  0  0
   10.1080   38.2620   32.6644 H   0  0  0  0  0  0  0  0  0  0  0  0
   13.6656   37.4545   31.2208 H   0  0  0  0  0  0  0  0  0  0  0  0
    8.8998   38.6957   30.8805 H   0  0  0  0  0  0  0  0  0  0  0  0
   11.2846   36.3057   32.5172 H   0  0  0  0  0  0  0  0  0  0  0  0
   10.8524   35.7097   30.4584 H   0  0  0  0  0  0  0  0  0  0  0  0
   12.3352   38.3587   34.7440 H   0  0  0  0  0  0  0  0  0  0  0  0
   16.7570   34.1788   32.4619 H   0  0  0  0  0  0  0  0  0  0  0  0
   15.3529   35.7358   37.5136 H   0  0  0  0  0  0  0  0  0  0  0  0
   16.6360   34.5317   37.1413 H   0  0  0  0  0  0  0  0  0  0  0  0
  1  2  2  0
  1  3  1  0
  3  4  1  0
  4  5  1  0
  6  1  1  0
  7  6  1  0
  6  8  1  0
  8  9  1  0
  9 10  2  0
 11  9  1  0
 10 12  1  0
 13 11  2  0
 12 14  2  0
 14 13  1  0
 14 15  1  0
 15 16  1  0
  4 17  2  0
  4 18  1  0
 19 18  1  0
 19 20  1  0
 20 21  1  0
 20 22  1  0
 21 23  1  0
 22 24  1  0
 22 25  1  0
 25 23  1  0
 23 26  1  0
 25 27  1  0
 28 26  1  0
 29 26  1  0
 30 28  2  0
 28 31  1  0
 32 29  2  0
 33 30  1  0
 31 34  2  0
 31 32  1  0
 35 33  2  0
 35 34  1  0
 34 36  1  0
  6 37  1  1
  7 38  1  0
  7 39  1  0
  8 40  1  0
  8 41  1  0
 10 42  1  0
 11 43  1  0
 12 44  1  0
 13 45  1  0
 16 46  1  0
 16 47  1  0
 16 48  1  0
 19 49  1  0
 19 50  1  0
 20 51  1  0
 22 52  1  0
 23 53  1  0
 24 54  1  0
 25 55  1  0
 27 56  1  0
 29 57  1  0
 33 58  1  0
 36 59  1  0
 36 60  1  0
M  CHG  1   5  -1
M  END
>  <EmbedRMS>  (24) 
0.08968436349553419

$$$$

     RDKit          3D

 60 63  0  0  0  0  0  0  0  0999 V2000
   10.2903   43.7683   33.8032 C   0  0  0  0  0  0  0  0  0  0  0  0
   11.4117   43.5808   34.3603 O   0  0  0  0  0  0  0  0  0  0  0  0
    9.3641   42.7329   33.7099 O   0  0  0  0  0  0  0  0  0  0  0  0
    9.8840   41.2334   34.2858 P   0  0  0  0  0  5  0  0  0  0  0  0
   10.3668   41.4655   35.8759 O   0  0  0  0  0  1  0  0  0  0  0  0
    9.9696   45.1050   33.2284 C   0  0  1  0  0  0  0  0  0  0  0  0
   11.0569   46.0522   33.4894 N   0  0  0  0  0  0  0  0  0  0  0  0
    9.7164   44.9860   31.7146 C   0  0  0  0  0  0  0  0  0  0  0  0
    9.2974   46.3071   31.1224 C   0  0  0  0  0  0  0  0  0  0  0  0
    7.9615   46.7277   31.2088 C   0  0  0  0  0  0  0  0  0  0  0  0
   10.2450   47.1492   30.5201 C   0  0  0  0  0  0  0  0  0  0  0  0
    7.5763   47.9648   30.6847 C   0  0  0  0  0  0  0  0  0  0  0  0
    9.8592   48.3867   29.9962 C   0  0  0  0  0  0  0  0  0  0  0  0
    8.5164   48.8033   30.0747 C   0  0  0  0  0  0  0  0  0  0  0  0
    8.0794   50.0348   29.5643 O   0  0  0  0  0  0  0  0  0  0  0  0
    8.9243   50.9836   28.9214 C   0  0  0  0  0  0  0  0  0  0  0  0
    8.8066   40.1905   34.2089 O   0  0  0  0  0  0  0  0  0  0  0  0
   11.2356   40.7927   33.3671 O   0  0  0  0  0  0  0  0  0  0  0  0
   10.9121   40.6870   31.9947 C   0  0  0  0  0  0  0  0  0  0  0  0
   11.5163   39.3804   31.4412 C   0  0  0  0  0  0  0  0  0  0  0  0
   12.7482   39.0893   32.0767 O   0  0  0  0  0  0  0  0  0  0  0  0
   10.6048   38.1880   31.6659 C   0  0  0  0  0  0  0  0  0  0  0  0
   12.9410   37.6834   32.0279 C   0  0  0  0  0  0  0  0  0  0  0  0
    9.6357   38.0932   30.6501 O   0  0  0  0  0  0  0  0  0  0  0  0
   11.5826   37.0183   31.6937 C   0  0  0  0  0  0  0  0  0  0  0  0
   13.4908   37.2179   33.3239 N   0  0  0  0  0  0  0  0  0  0  0  0
   11.6141   36.3183   30.4676 O   0  0  0  0  0  0  0  0  0  0  0  0
   14.4762   36.3271   33.5733 C   0  0  0  0  0  0  0  0  0  0  0  0
   13.1179   37.6318   34.5689 C   0  0  0  0  0  0  0  0  0  0  0  0
   15.2066   35.6141   32.6743 N   0  0  0  0  0  0  0  0  0  0  0  0
   14.6731   36.2273   34.9186 C   0  0  0  0  0  0  0  0  0  0  0  0
   13.8223   37.0456   35.5785 N   0  0  0  0  0  0  0  0  0  0  0  0
   16.1638   34.7595   33.1550 C   0  0  0  0  0  0  0  0  0  0  0  0
   15.6515   35.3491   35.4134 C   0  0  0  0  0  0  0  0  0  0  0  0
   16.3792   34.6310   34.5045 N   0  0  0  0  0  0  0  0  0  0  0  0
   15.9002   35.1933   36.8092 N   0  0  0  0  0  0  0  0  0  0  0  0
    9.0440   45.4767   33.7210 H   0  0  0  0  0  0  0  0  0  0  0  0
   11.1829   46.1617   34.5225 H   0  0  0  0  0  0  0  0  0  0  0  0
   11.9530   45.6972   33.0806 H   0  0  0  0  0  0  0  0  0  0  0  0
   10.6322   44.6102   31.2059 H   0  0  0  0  0  0  0  0  0  0  0  0
    8.9147   44.2379   31.5255 H   0  0  0  0  0  0  0  0  0  0  0  0
    7.2193   46.0978   31.6834 H   0  0  0  0  0  0  0  0  0  0  0  0
   11.2837   46.8485   30.4581 H   0  0  0  0  0  0  0  0  0  0  0  0
    6.5415   48.2755   30.7553 H   0  0  0  0  0  0  0  0  0  0  0  0
   10.6119   49.0118   29.5358 H   0  0  0  0  0  0  0  0  0  0  0  0
    9.3799   50.5355   28.0132 H   0  0  0  0  0  0  0  0  0  0  0  0
    9.7182   51.3229   29.6199 H   0  0  0  0  0  0  0  0  0  0  0  0
    8.3185   51.8619   28.6185 H   0  0  0  0  0  0  0  0  0  0  0  0
   11.3829   41.5448   31.4684 H   0  0  0  0  0  0  0  0  0  0  0  0
    9.8219   40.7217   31.7588 H   0  0  0  0  0  0  0  0  0  0  0  0
   11.6989   39.5073   30.3491 H   0  0  0  0  0  0  0  0  0  0  0  0
   10.1116   38.2724   32.6631 H   0  0  0  0  0  0  0  0  0  0  0  0
   13.6814   37.4642   31.2269 H   0  0  0  0  0  0  0  0  0  0  0  0
    9.0036   37.3829   30.9346 H   0  0  0  0  0  0  0  0  0  0  0  0
   11.2846   36.3045   32.4929 H   0  0  0  0  0  0  0  0  0  0  0  0
   11.8849   36.9593   29.7589 H   0  0  0  0  0  0  0  0  0  0  0  0
   12.3363   38.3600   34.7442 H   0  0  0  0  0  0  0  0  0  0  0  0
   16.7573   34.1791   32.4622 H   0  0  0  0  0  0  0  0  0  0  0  0
   16.6362   34.5317   37.1417 H   0  0  0  0  0  0  0  0  0  0  0  0
   15.3529   35.7355   37.5141 H   0  0  0  0  0  0  0  0  0  0  0  0
  1  2  2  0
  1  3  1  0
  3  4  1  0
  4  5  1  0
  6  1  1  0
  7  6  1  0
  6  8  1  0
  8  9  1  0
  9 10  2  0
 11  9  1  0
 10 12  1  0
 13 11  2  0
 12 14  2  0
 14 13  1  0
 14 15  1  0
 15 16  1  0
  4 17  2  0
  4 18  1  0
 19 18  1  0
 19 20  1  0
 20 21  1  0
 20 22  1  0
 21 23  1  0
 22 24  1  0
 22 25  1  0
 25 23  1  0
 23 26  1  0
 25 27  1  0
 28 26  1  0
 29 26  1  0
 30 28  2  0
 28 31  1  0
 32 29  2  0
 33 30  1  0
 31 34  2  0
 31 32  1  0
 35 33  2  0
 35 34  1  0
 34 36  1  0
  6 37  1  1
  7 38  1  0
  7 39  1  0
  8 40  1  0
  8 41  1  0
 10 42  1  0
 11 43  1  0
 12 44  1  0
 13 45  1  0
 16 46  1  0
 16 47  1  0
 16 48  1  0
 19 49  1  0
 19 50  1  0
 20 51  1  0
 22 52  1  0
 23 53  1  0
 24 54  1  0
 25 55  1  0
 27 56  1  0
 29 57  1  0
 33 58  1  0
 36 59  1  0
 36 60  1  0
M  CHG  1   5  -1
M  END
>  <EmbedRMS>  (25) 
0.08827724375217896

$$$$

     RDKit          3D

 60 63  0  0  0  0  0  0  0  0999 V2000
   10.2904   43.7682   33.8031 C   0  0  0  0  0  0  0  0  0  0  0  0
   11.4118   43.5808   34.3603 O   0  0  0  0  0  0  0  0  0  0  0  0
    9.3643   42.7327   33.7095 O   0  0  0  0  0  0  0  0  0  0  0  0
    9.8843   41.2331   34.2850 P   0  0  0  0  0  5  0  0  0  0  0  0
   10.3673   41.4652   35.8752 O   0  0  0  0  0  1  0  0  0  0  0  0
    9.9696   45.1050   33.2284 C   0  0  1  0  0  0  0  0  0  0  0  0
   11.0568   46.0522   33.4894 N   0  0  0  0  0  0  0  0  0  0  0  0
    9.7161   44.9860   31.7147 C   0  0  0  0  0  0  0  0  0  0  0  0
    9.2937   46.3064   31.1232 C   0  0  0  0  0  0  0  0  0  0  0  0
    7.9566   46.7233   31.2097 C   0  0  0  0  0  0  0  0  0  0  0  0
   10.2390   47.1513   30.5215 C   0  0  0  0  0  0  0  0  0  0  0  0
    7.5661   47.9596   30.6865 C   0  0  0  0  0  0  0  0  0  0  0  0
    9.8482   48.3872   29.9986 C   0  0  0  0  0  0  0  0  0  0  0  0
    8.5135   48.8023   30.0740 C   0  0  0  0  0  0  0  0  0  0  0  0
    8.1723   50.0512   29.5340 O   0  0  0  0  0  0  0  0  0  0  0  0
    6.8575   50.5977   29.5414 C   0  0  0  0  0  0  0  0  0  0  0  0
    8.8067   40.1904   34.2085 O   0  0  0  0  0  0  0  0  0  0  0  0
   11.2358   40.7922   33.3657 O   0  0  0  0  0  0  0  0  0  0  0  0
   10.9121   40.6852   31.9932 C   0  0  0  0  0  0  0  0  0  0  0  0
   11.5169   39.3780   31.4397 C   0  0  0  0  0  0  0  0  0  0  0  0
   12.7471   39.0875   32.0760 O   0  0  0  0  0  0  0  0  0  0  0  0
   10.6066   38.1854   31.6656 C   0  0  0  0  0  0  0  0  0  0  0  0
   12.9370   37.6817   32.0291 C   0  0  0  0  0  0  0  0  0  0  0  0
    9.6403   38.0884   30.6474 O   0  0  0  0  0  0  0  0  0  0  0  0
   11.5788   37.0138   31.7045 C   0  0  0  0  0  0  0  0  0  0  0  0
   13.4915   37.2185   33.3239 N   0  0  0  0  0  0  0  0  0  0  0  0
   11.6125   36.3391   30.4674 O   0  0  0  0  0  0  0  0  0  0  0  0
   14.4765   36.3273   33.5730 C   0  0  0  0  0  0  0  0  0  0  0  0
   13.1184   37.6318   34.5691 C   0  0  0  0  0  0  0  0  0  0  0  0
   15.2065   35.6140   32.6740 N   0  0  0  0  0  0  0  0  0  0  0  0
   14.6735   36.2274   34.9184 C   0  0  0  0  0  0  0  0  0  0  0  0
   13.8227   37.0456   35.5785 N   0  0  0  0  0  0  0  0  0  0  0  0
   16.1636   34.7593   33.1547 C   0  0  0  0  0  0  0  0  0  0  0  0
   15.6516   35.3491   35.4131 C   0  0  0  0  0  0  0  0  0  0  0  0
   16.3791   34.6308   34.5042 N   0  0  0  0  0  0  0  0  0  0  0  0
   15.9003   35.1932   36.8090 N   0  0  0  0  0  0  0  0  0  0  0  0
    9.0440   45.4765   33.7212 H   0  0  0  0  0  0  0  0  0  0  0  0
   11.1828   46.1618   34.5225 H   0  0  0  0  0  0  0  0  0  0  0  0
   11.9529   45.6972   33.0806 H   0  0  0  0  0  0  0  0  0  0  0  0
   10.6327   44.6127   31.2055 H   0  0  0  0  0  0  0  0  0  0  0  0
    8.9162   44.2362   31.5254 H   0  0  0  0  0  0  0  0  0  0  0  0
    7.2166   46.0904   31.6842 H   0  0  0  0  0  0  0  0  0  0  0  0
   11.2786   46.8543   30.4589 H   0  0  0  0  0  0  0  0  0  0  0  0
    6.5278   48.2512   30.7656 H   0  0  0  0  0  0  0  0  0  0  0  0
   10.5872   49.0279   29.5343 H   0  0  0  0  0  0  0  0  0  0  0  0
    6.8753   51.5919   29.0499 H   0  0  0  0  0  0  0  0  0  0  0  0
    6.5022   50.7237   30.5860 H   0  0  0  0  0  0  0  0  0  0  0  0
    6.1655   49.9355   28.9794 H   0  0  0  0  0  0  0  0  0  0  0  0
    9.8218   40.7195   31.7578 H   0  0  0  0  0  0  0  0  0  0  0  0
   11.3824   41.5428   31.4662 H   0  0  0  0  0  0  0  0  0  0  0  0
   11.7002   39.5026   30.3474 H   0  0  0  0  0  0  0  0  0  0  0  0
   10.1093   38.2753   32.6604 H   0  0  0  0  0  0  0  0  0  0  0  0
   13.6711   37.4601   31.2227 H   0  0  0  0  0  0  0  0  0  0  0  0
    9.0032   37.3837   30.9348 H   0  0  0  0  0  0  0  0  0  0  0  0
   11.2705   36.3052   32.5089 H   0  0  0  0  0  0  0  0  0  0  0  0
   12.1445   35.5140   30.6143 H   0  0  0  0  0  0  0  0  0  0  0  0
   12.3362   38.3594   34.7446 H   0  0  0  0  0  0  0  0  0  0  0  0
   16.7569   34.1787   32.4619 H   0  0  0  0  0  0  0  0  0  0  0  0
   15.3531   35.7355   37.5139 H   0  0  0  0  0  0  0  0  0  0  0  0
   16.6362   34.5314   37.1415 H   0  0  0  0  0  0  0  0  0  0  0  0
  1  2  2  0
  1  3  1  0
  3  4  1  0
  4  5  1  0
  6  1  1  0
  7  6  1  0
  6  8  1  0
  8  9  1  0
  9 10  2  0
 11  9  1  0
 10 12  1  0
 13 11  2  0
 12 14  2  0
 14 13  1  0
 14 15  1  0
 15 16  1  0
  4 17  2  0
  4 18  1  0
 19 18  1  0
 19 20  1  0
 20 21  1  0
 20 22  1  0
 21 23  1  0
 22 24  1  0
 22 25  1  0
 25 23  1  0
 23 26  1  0
 25 27  1  0
 28 26  1  0
 29 26  1  0
 30 28  2  0
 28 31  1  0
 32 29  2  0
 33 30  1  0
 31 34  2  0
 31 32  1  0
 35 33  2  0
 35 34  1  0
 34 36  1  0
  6 37  1  1
  7 38  1  0
  7 39  1  0
  8 40  1  0
  8 41  1  0
 10 42  1  0
 11 43  1  0
 12 44  1  0
 13 45  1  0
 16 46  1  0
 16 47  1  0
 16 48  1  0
 19 49  1  0
 19 50  1  0
 20 51  1  0
 22 52  1  0
 23 53  1  0
 24 54  1  0
 25 55  1  0
 27 56  1  0
 29 57  1  0
 33 58  1  0
 36 59  1  0
 36 60  1  0
M  CHG  1   5  -1
M  END
>  <EmbedRMS>  (26) 
0.08925005913304165

$$$$

     RDKit          3D

 60 63  0  0  0  0  0  0  0  0999 V2000
   10.2940   43.7720   33.7964 C   0  0  0  0  0  0  0  0  0  0  0  0
   11.4140   43.5898   34.3579 O   0  0  0  0  0  0  0  0  0  0  0  0
    9.3670   42.7359   33.7091 O   0  0  0  0  0  0  0  0  0  0  0  0
    9.8867   41.2362   34.2853 P   0  0  0  0  0  5  0  0  0  0  0  0
   10.3693   41.4675   35.8755 O   0  0  0  0  0  1  0  0  0  0  0  0
    9.9759   45.1033   33.2101 C   0  0  1  0  0  0  0  0  0  0  0  0
   11.0440   46.0544   33.5249 N   0  0  0  0  0  0  0  0  0  0  0  0
    9.7480   45.0013   31.6781 C   0  0  0  0  0  0  0  0  0  0  0  0
   10.9933   45.2151   30.8390 C   0  0  0  0  0  0  0  0  0  0  0  0
   11.0087   46.2079   29.8446 C   0  0  0  0  0  0  0  0  0  0  0  0
   12.1331   44.4135   31.0148 C   0  0  0  0  0  0  0  0  0  0  0  0
   12.1428   46.3989   29.0504 C   0  0  0  0  0  0  0  0  0  0  0  0
   13.2671   44.6046   30.2204 C   0  0  0  0  0  0  0  0  0  0  0  0
   13.2789   45.6026   29.2288 C   0  0  0  0  0  0  0  0  0  0  0  0
   14.3914   45.8333   28.4059 O   0  0  0  0  0  0  0  0  0  0  0  0
   15.6095   45.0996   28.4774 C   0  0  0  0  0  0  0  0  0  0  0  0
    8.8092   40.1931   34.2083 O   0  0  0  0  0  0  0  0  0  0  0  0
   11.2378   40.7964   33.3649 O   0  0  0  0  0  0  0  0  0  0  0  0
   10.9098   40.6832   31.9940 C   0  0  0  0  0  0  0  0  0  0  0  0
   11.5144   39.3783   31.4416 C   0  0  0  0  0  0  0  0  0  0  0  0
   12.7467   39.0886   32.0768 O   0  0  0  0  0  0  0  0  0  0  0  0
   10.6026   38.1858   31.6664 C   0  0  0  0  0  0  0  0  0  0  0  0
   12.9398   37.6831   32.0279 C   0  0  0  0  0  0  0  0  0  0  0  0
    9.6370   38.0748   30.6475 O   0  0  0  0  0  0  0  0  0  0  0  0
   11.5810   37.0181   31.6934 C   0  0  0  0  0  0  0  0  0  0  0  0
   13.4902   37.2177   33.3239 N   0  0  0  0  0  0  0  0  0  0  0  0
   11.6130   36.3182   30.4672 O   0  0  0  0  0  0  0  0  0  0  0  0
   14.4759   36.3271   33.5732 C   0  0  0  0  0  0  0  0  0  0  0  0
   13.1176   37.6317   34.5689 C   0  0  0  0  0  0  0  0  0  0  0  0
   15.2064   35.6141   32.6742 N   0  0  0  0  0  0  0  0  0  0  0  0
   14.6730   36.2274   34.9185 C   0  0  0  0  0  0  0  0  0  0  0  0
   13.8222   37.0457   35.5784 N   0  0  0  0  0  0  0  0  0  0  0  0
   16.1637   34.7597   33.1549 C   0  0  0  0  0  0  0  0  0  0  0  0
   15.6514   35.3493   35.4133 C   0  0  0  0  0  0  0  0  0  0  0  0
   16.3791   34.6311   34.5044 N   0  0  0  0  0  0  0  0  0  0  0  0
   15.9002   35.1934   36.8091 N   0  0  0  0  0  0  0  0  0  0  0  0
    9.0288   45.4513   33.6818 H   0  0  0  0  0  0  0  0  0  0  0  0
   11.0607   46.2026   34.5610 H   0  0  0  0  0  0  0  0  0  0  0  0
   10.7869   46.9815   33.1136 H   0  0  0  0  0  0  0  0  0  0  0  0
    8.9849   45.7629   31.4045 H   0  0  0  0  0  0  0  0  0  0  0  0
    9.3006   44.0198   31.4079 H   0  0  0  0  0  0  0  0  0  0  0  0
   10.1426   46.8368   29.6806 H   0  0  0  0  0  0  0  0  0  0  0  0
   12.1563   43.6495   31.7758 H   0  0  0  0  0  0  0  0  0  0  0  0
   12.1382   47.1695   28.2900 H   0  0  0  0  0  0  0  0  0  0  0  0
   14.1285   43.9724   30.3868 H   0  0  0  0  0  0  0  0  0  0  0  0
   15.4208   44.0251   28.2700 H   0  0  0  0  0  0  0  0  0  0  0  0
   16.3134   45.4903   27.7143 H   0  0  0  0  0  0  0  0  0  0  0  0
   16.0698   45.2205   29.4808 H   0  0  0  0  0  0  0  0  0  0  0  0
    9.8202   40.7257   31.7606 H   0  0  0  0  0  0  0  0  0  0  0  0
   11.3797   41.5300   31.4573 H   0  0  0  0  0  0  0  0  0  0  0  0
   11.6963   39.5042   30.3492 H   0  0  0  0  0  0  0  0  0  0  0  0
   10.1122   38.2535   32.6671 H   0  0  0  0  0  0  0  0  0  0  0  0
   13.6803   37.4642   31.2268 H   0  0  0  0  0  0  0  0  0  0  0  0
    8.8899   38.6795   30.8939 H   0  0  0  0  0  0  0  0  0  0  0  0
   11.2848   36.3027   32.4921 H   0  0  0  0  0  0  0  0  0  0  0  0
   11.8874   36.9584   29.7591 H   0  0  0  0  0  0  0  0  0  0  0  0
   12.3360   38.3599   34.7443 H   0  0  0  0  0  0  0  0  0  0  0  0
   16.7573   34.1793   32.4621 H   0  0  0  0  0  0  0  0  0  0  0  0
   16.6362   34.5317   37.1416 H   0  0  0  0  0  0  0  0  0  0  0  0
   15.3529   35.7356   37.5140 H   0  0  0  0  0  0  0  0  0  0  0  0
  1  2  2  0
  1  3  1  0
  3  4  1  0
  4  5  1  0
  6  1  1  0
  7  6  1  0
  6  8  1  0
  8  9  1  0
  9 10  2  0
 11  9  1  0
 10 12  1  0
 13 11  2  0
 12 14  2  0
 14 13  1  0
 14 15  1  0
 15 16  1  0
  4 17  2  0
  4 18  1  0
 19 18  1  0
 19 20  1  0
 20 21  1  0
 20 22  1  0
 21 23  1  0
 22 24  1  0
 22 25  1  0
 25 23  1  0
 23 26  1  0
 25 27  1  0
 28 26  1  0
 29 26  1  0
 30 28  2  0
 28 31  1  0
 32 29  2  0
 33 30  1  0
 31 34  2  0
 31 32  1  0
 35 33  2  0
 35 34  1  0
 34 36  1  0
  6 37  1  1
  7 38  1  0
  7 39  1  0
  8 40  1  0
  8 41  1  0
 10 42  1  0
 11 43  1  0
 12 44  1  0
 13 45  1  0
 16 46  1  0
 16 47  1  0
 16 48  1  0
 19 49  1  0
 19 50  1  0
 20 51  1  0
 22 52  1  0
 23 53  1  0
 24 54  1  0
 25 55  1  0
 27 56  1  0
 29 57  1  0
 33 58  1  0
 36 59  1  0
 36 60  1  0
M  CHG  1   5  -1
M  END
>  <EmbedRMS>  (27) 
0.08909615266965927

$$$$

     RDKit          3D

 60 63  0  0  0  0  0  0  0  0999 V2000
   10.2879   43.7719   33.8024 C   0  0  0  0  0  0  0  0  0  0  0  0
   11.4129   43.5865   34.3534 O   0  0  0  0  0  0  0  0  0  0  0  0
    9.3632   42.7344   33.7122 O   0  0  0  0  0  0  0  0  0  0  0  0
    9.8848   41.2347   34.2865 P   0  0  0  0  0  5  0  0  0  0  0  0
   10.3679   41.4664   35.8765 O   0  0  0  0  0  1  0  0  0  0  0  0
    9.9690   45.1017   33.2139 C   0  0  1  0  0  0  0  0  0  0  0  0
   11.0575   46.0377   33.5063 N   0  0  0  0  0  0  0  0  0  0  0  0
    9.7797   44.9512   31.6900 C   0  0  0  0  0  0  0  0  0  0  0  0
    9.2587   46.2169   31.0573 C   0  0  0  0  0  0  0  0  0  0  0  0
   10.1248   47.0763   30.3636 C   0  0  0  0  0  0  0  0  0  0  0  0
    7.9039   46.5611   31.1809 C   0  0  0  0  0  0  0  0  0  0  0  0
    9.6401   48.2578   29.7954 C   0  0  0  0  0  0  0  0  0  0  0  0
    7.4195   47.7428   30.6123 C   0  0  0  0  0  0  0  0  0  0  0  0
    8.2885   48.6019   29.9126 C   0  0  0  0  0  0  0  0  0  0  0  0
    7.8518   49.7983   29.3246 O   0  0  0  0  0  0  0  0  0  0  0  0
    6.5093   50.2711   29.3664 C   0  0  0  0  0  0  0  0  0  0  0  0
    8.8077   40.1914   34.2097 O   0  0  0  0  0  0  0  0  0  0  0  0
   11.2362   40.7933   33.3677 O   0  0  0  0  0  0  0  0  0  0  0  0
   10.9134   40.6894   31.9951 C   0  0  0  0  0  0  0  0  0  0  0  0
   11.5252   39.3880   31.4370 C   0  0  0  0  0  0  0  0  0  0  0  0
   12.7484   39.0901   32.0826 O   0  0  0  0  0  0  0  0  0  0  0  0
   10.6119   38.1897   31.6462 C   0  0  0  0  0  0  0  0  0  0  0  0
   12.9371   37.6835   32.0303 C   0  0  0  0  0  0  0  0  0  0  0  0
    9.6149   38.0841   30.6537 O   0  0  0  0  0  0  0  0  0  0  0  0
   11.5792   37.0142   31.7014 C   0  0  0  0  0  0  0  0  0  0  0  0
   13.4906   37.2173   33.3242 N   0  0  0  0  0  0  0  0  0  0  0  0
   11.6217   36.3256   30.4726 O   0  0  0  0  0  0  0  0  0  0  0  0
   14.4762   36.3268   33.5730 C   0  0  0  0  0  0  0  0  0  0  0  0
   13.1181   37.6310   34.5695 C   0  0  0  0  0  0  0  0  0  0  0  0
   15.2064   35.6139   32.6739 N   0  0  0  0  0  0  0  0  0  0  0  0
   14.6735   36.2270   34.9184 C   0  0  0  0  0  0  0  0  0  0  0  0
   13.8229   37.0451   35.5787 N   0  0  0  0  0  0  0  0  0  0  0  0
   16.1638   34.7594   33.1546 C   0  0  0  0  0  0  0  0  0  0  0  0
   15.6518   35.3489   35.4131 C   0  0  0  0  0  0  0  0  0  0  0  0
   16.3794   34.6308   34.5041 N   0  0  0  0  0  0  0  0  0  0  0  0
   15.9006   35.1931   36.8089 N   0  0  0  0  0  0  0  0  0  0  0  0
    9.0244   45.4685   33.6756 H   0  0  0  0  0  0  0  0  0  0  0  0
   10.7940   46.9818   33.1429 H   0  0  0  0  0  0  0  0  0  0  0  0
   11.1200   46.1577   34.5443 H   0  0  0  0  0  0  0  0  0  0  0  0
   10.7437   44.6511   31.2215 H   0  0  0  0  0  0  0  0  0  0  0  0
    9.0541   44.1346   31.4781 H   0  0  0  0  0  0  0  0  0  0  0  0
   11.1759   46.8344   30.2659 H   0  0  0  0  0  0  0  0  0  0  0  0
    7.2230   45.9133   31.7194 H   0  0  0  0  0  0  0  0  0  0  0  0
   10.3191   48.9114   29.2625 H   0  0  0  0  0  0  0  0  0  0  0  0
    6.3702   47.9794   30.7236 H   0  0  0  0  0  0  0  0  0  0  0  0
    6.4479   51.2364   28.8235 H   0  0  0  0  0  0  0  0  0  0  0  0
    5.8322   49.5419   28.8734 H   0  0  0  0  0  0  0  0  0  0  0  0
    6.1947   50.4344   30.4188 H   0  0  0  0  0  0  0  0  0  0  0  0
    9.8229   40.7184   31.7597 H   0  0  0  0  0  0  0  0  0  0  0  0
   11.3786   41.5520   31.4715 H   0  0  0  0  0  0  0  0  0  0  0  0
   11.7285   39.5297   30.3510 H   0  0  0  0  0  0  0  0  0  0  0  0
   10.1133   38.2720   32.6379 H   0  0  0  0  0  0  0  0  0  0  0  0
   13.6723   37.4649   31.2240 H   0  0  0  0  0  0  0  0  0  0  0  0
   10.0536   38.1091   29.7638 H   0  0  0  0  0  0  0  0  0  0  0  0
   11.2645   36.3140   32.5108 H   0  0  0  0  0  0  0  0  0  0  0  0
   12.1553   35.5038   30.6317 H   0  0  0  0  0  0  0  0  0  0  0  0
   12.3362   38.3588   34.7452 H   0  0  0  0  0  0  0  0  0  0  0  0
   16.7572   34.1789   32.4617 H   0  0  0  0  0  0  0  0  0  0  0  0
   15.3533   35.7353   37.5138 H   0  0  0  0  0  0  0  0  0  0  0  0
   16.6366   34.5314   37.1414 H   0  0  0  0  0  0  0  0  0  0  0  0
  1  2  2  0
  1  3  1  0
  3  4  1  0
  4  5  1  0
  6  1  1  0
  7  6  1  0
  6  8  1  0
  8  9  1  0
  9 10  2  0
 11  9  1  0
 10 12  1  0
 13 11  2  0
 12 14  2  0
 14 13  1  0
 14 15  1  0
 15 16  1  0
  4 17  2  0
  4 18  1  0
 19 18  1  0
 19 20  1  0
 20 21  1  0
 20 22  1  0
 21 23  1  0
 22 24  1  0
 22 25  1  0
 25 23  1  0
 23 26  1  0
 25 27  1  0
 28 26  1  0
 29 26  1  0
 30 28  2  0
 28 31  1  0
 32 29  2  0
 33 30  1  0
 31 34  2  0
 31 32  1  0
 35 33  2  0
 35 34  1  0
 34 36  1  0
  6 37  1  1
  7 38  1  0
  7 39  1  0
  8 40  1  0
  8 41  1  0
 10 42  1  0
 11 43  1  0
 12 44  1  0
 13 45  1  0
 16 46  1  0
 16 47  1  0
 16 48  1  0
 19 49  1  0
 19 50  1  0
 20 51  1  0
 22 52  1  0
 23 53  1  0
 24 54  1  0
 25 55  1  0
 27 56  1  0
 29 57  1  0
 33 58  1  0
 36 59  1  0
 36 60  1  0
M  CHG  1   5  -1
M  END
>  <EmbedRMS>  (28) 
0.08785402949625434

$$$$

     RDKit          3D

 60 63  0  0  0  0  0  0  0  0999 V2000
   10.2906   43.7681   33.8031 C   0  0  0  0  0  0  0  0  0  0  0  0
   11.4118   43.5808   34.3604 O   0  0  0  0  0  0  0  0  0  0  0  0
    9.3647   42.7325   33.7093 O   0  0  0  0  0  0  0  0  0  0  0  0
    9.8845   41.2329   34.2855 P   0  0  0  0  0  5  0  0  0  0  0  0
   10.3661   41.4654   35.8760 O   0  0  0  0  0  1  0  0  0  0  0  0
    9.9697   45.1049   33.2283 C   0  0  1  0  0  0  0  0  0  0  0  0
   11.0569   46.0521   33.4895 N   0  0  0  0  0  0  0  0  0  0  0  0
    9.7167   44.9857   31.7145 C   0  0  0  0  0  0  0  0  0  0  0  0
    9.2978   46.3069   31.1221 C   0  0  0  0  0  0  0  0  0  0  0  0
   10.2455   47.1490   30.5200 C   0  0  0  0  0  0  0  0  0  0  0  0
    7.9619   46.7274   31.2083 C   0  0  0  0  0  0  0  0  0  0  0  0
    9.8597   48.3865   29.9962 C   0  0  0  0  0  0  0  0  0  0  0  0
    7.5767   47.9645   30.6843 C   0  0  0  0  0  0  0  0  0  0  0  0
    8.5169   48.8031   30.0744 C   0  0  0  0  0  0  0  0  0  0  0  0
    8.0800   50.0346   29.5641 O   0  0  0  0  0  0  0  0  0  0  0  0
    8.9250   50.9835   28.9216 C   0  0  0  0  0  0  0  0  0  0  0  0
    8.8072   40.1901   34.2079 O   0  0  0  0  0  0  0  0  0  0  0  0
   11.2374   40.7917   33.3686 O   0  0  0  0  0  0  0  0  0  0  0  0
   10.9182   40.6904   31.9950 C   0  0  0  0  0  0  0  0  0  0  0  0
   11.5166   39.3808   31.4399 C   0  0  0  0  0  0  0  0  0  0  0  0
   12.7474   39.0867   32.0737 O   0  0  0  0  0  0  0  0  0  0  0  0
   10.6028   38.1894   31.6666 C   0  0  0  0  0  0  0  0  0  0  0  0
   12.9333   37.6802   32.0280 C   0  0  0  0  0  0  0  0  0  0  0  0
    9.6396   38.0779   30.6455 O   0  0  0  0  0  0  0  0  0  0  0  0
   11.5738   37.0158   31.7057 C   0  0  0  0  0  0  0  0  0  0  0  0
   13.4903   37.2180   33.3230 N   0  0  0  0  0  0  0  0  0  0  0  0
   11.6211   36.3379   30.4696 O   0  0  0  0  0  0  0  0  0  0  0  0
   14.4761   36.3274   33.5724 C   0  0  0  0  0  0  0  0  0  0  0  0
   13.1178   37.6318   34.5684 C   0  0  0  0  0  0  0  0  0  0  0  0
   15.2063   35.6140   32.6737 N   0  0  0  0  0  0  0  0  0  0  0  0
   14.6733   36.2278   34.9179 C   0  0  0  0  0  0  0  0  0  0  0  0
   13.8225   37.0459   35.5779 N   0  0  0  0  0  0  0  0  0  0  0  0
   16.1635   34.7595   33.1545 C   0  0  0  0  0  0  0  0  0  0  0  0
   15.6515   35.3494   35.4129 C   0  0  0  0  0  0  0  0  0  0  0  0
   16.3790   34.6311   34.5040 N   0  0  0  0  0  0  0  0  0  0  0  0
   15.9001   35.1935   36.8087 N   0  0  0  0  0  0  0  0  0  0  0  0
    9.0440   45.4764   33.7208 H   0  0  0  0  0  0  0  0  0  0  0  0
   11.9531   45.6972   33.0808 H   0  0  0  0  0  0  0  0  0  0  0  0
   11.1827   46.1617   34.5226 H   0  0  0  0  0  0  0  0  0  0  0  0
    8.9151   44.2376   31.5253 H   0  0  0  0  0  0  0  0  0  0  0  0
   10.6326   44.6099   31.2059 H   0  0  0  0  0  0  0  0  0  0  0  0
   11.2841   46.8483   30.4582 H   0  0  0  0  0  0  0  0  0  0  0  0
    7.2195   46.0974   31.6828 H   0  0  0  0  0  0  0  0  0  0  0  0
   10.6125   49.0117   29.5358 H   0  0  0  0  0  0  0  0  0  0  0  0
    6.5419   48.2752   30.7547 H   0  0  0  0  0  0  0  0  0  0  0  0
    9.3807   50.5356   28.0133 H   0  0  0  0  0  0  0  0  0  0  0  0
    8.3192   51.8619   28.6187 H   0  0  0  0  0  0  0  0  0  0  0  0
    9.7187   51.3227   29.6202 H   0  0  0  0  0  0  0  0  0  0  0  0
   11.3989   41.5451   31.4727 H   0  0  0  0  0  0  0  0  0  0  0  0
    9.8303   40.7405   31.7554 H   0  0  0  0  0  0  0  0  0  0  0  0
   11.6978   39.5051   30.3473 H   0  0  0  0  0  0  0  0  0  0  0  0
   10.1085   38.2634   32.6648 H   0  0  0  0  0  0  0  0  0  0  0  0
   13.6654   37.4549   31.2207 H   0  0  0  0  0  0  0  0  0  0  0  0
    8.8967   38.6908   30.8844 H   0  0  0  0  0  0  0  0  0  0  0  0
   11.2845   36.3064   32.5176 H   0  0  0  0  0  0  0  0  0  0  0  0
   10.8523   35.7097   30.4590 H   0  0  0  0  0  0  0  0  0  0  0  0
   12.3353   38.3589   34.7440 H   0  0  0  0  0  0  0  0  0  0  0  0
   16.7569   34.1789   32.4618 H   0  0  0  0  0  0  0  0  0  0  0  0
   16.6360   34.5317   37.1413 H   0  0  0  0  0  0  0  0  0  0  0  0
   15.3529   35.7359   37.5136 H   0  0  0  0  0  0  0  0  0  0  0  0
  1  2  2  0
  1  3  1  0
  3  4  1  0
  4  5  1  0
  6  1  1  0
  7  6  1  0
  6  8  1  0
  8  9  1  0
  9 10  2  0
 11  9  1  0
 10 12  1  0
 13 11  2  0
 12 14  2  0
 14 13  1  0
 14 15  1  0
 15 16  1  0
  4 17  2  0
  4 18  1  0
 19 18  1  0
 19 20  1  0
 20 21  1  0
 20 22  1  0
 21 23  1  0
 22 24  1  0
 22 25  1  0
 25 23  1  0
 23 26  1  0
 25 27  1  0
 28 26  1  0
 29 26  1  0
 30 28  2  0
 28 31  1  0
 32 29  2  0
 33 30  1  0
 31 34  2  0
 31 32  1  0
 35 33  2  0
 35 34  1  0
 34 36  1  0
  6 37  1  1
  7 38  1  0
  7 39  1  0
  8 40  1  0
  8 41  1  0
 10 42  1  0
 11 43  1  0
 12 44  1  0
 13 45  1  0
 16 46  1  0
 16 47  1  0
 16 48  1  0
 19 49  1  0
 19 50  1  0
 20 51  1  0
 22 52  1  0
 23 53  1  0
 24 54  1  0
 25 55  1  0
 27 56  1  0
 29 57  1  0
 33 58  1  0
 36 59  1  0
 36 60  1  0
M  CHG  1   5  -1
M  END
>  <EmbedRMS>  (29) 
0.08986220915470824

$$$$

     RDKit          3D

 60 63  0  0  0  0  0  0  0  0999 V2000
   10.2891   43.7708   33.7903 C   0  0  0  0  0  0  0  0  0  0  0  0
   11.4142   43.5855   34.3415 O   0  0  0  0  0  0  0  0  0  0  0  0
    9.3632   42.7339   33.7102 O   0  0  0  0  0  0  0  0  0  0  0  0
    9.8844   41.2352   34.2872 P   0  0  0  0  0  5  0  0  0  0  0  0
   10.3668   41.4684   35.8770 O   0  0  0  0  0  1  0  0  0  0  0  0
    9.9603   45.1139   33.2283 C   0  0  1  0  0  0  0  0  0  0  0  0
   11.0605   46.0373   33.5113 N   0  0  0  0  0  0  0  0  0  0  0  0
    9.7270   45.0478   31.7013 C   0  0  0  0  0  0  0  0  0  0  0  0
    8.5181   44.2262   31.3192 C   0  0  0  0  0  0  0  0  0  0  0  0
    7.2320   44.6191   31.7235 C   0  0  0  0  0  0  0  0  0  0  0  0
    8.6653   43.0676   30.5409 C   0  0  0  0  0  0  0  0  0  0  0  0
    6.1169   43.8461   31.3864 C   0  0  0  0  0  0  0  0  0  0  0  0
    7.5511   42.2936   30.2066 C   0  0  0  0  0  0  0  0  0  0  0  0
    6.2711   42.6706   30.6273 C   0  0  0  0  0  0  0  0  0  0  0  0
    5.1855   41.8574   30.2698 O   0  0  0  0  0  0  0  0  0  0  0  0
    3.8332   42.1174   30.6318 C   0  0  0  0  0  0  0  0  0  0  0  0
    8.8071   40.1922   34.2104 O   0  0  0  0  0  0  0  0  0  0  0  0
   11.2364   40.7910   33.3710 O   0  0  0  0  0  0  0  0  0  0  0  0
   10.9146   40.6880   31.9987 C   0  0  0  0  0  0  0  0  0  0  0  0
   11.5269   39.3897   31.4388 C   0  0  0  0  0  0  0  0  0  0  0  0
   12.7508   39.0915   32.0846 O   0  0  0  0  0  0  0  0  0  0  0  0
   10.6121   38.1912   31.6454 C   0  0  0  0  0  0  0  0  0  0  0  0
   12.9429   37.6852   32.0297 C   0  0  0  0  0  0  0  0  0  0  0  0
    9.6070   38.0862   30.6603 O   0  0  0  0  0  0  0  0  0  0  0  0
   11.5845   37.0185   31.6878 C   0  0  0  0  0  0  0  0  0  0  0  0
   13.4898   37.2161   33.3251 N   0  0  0  0  0  0  0  0  0  0  0  0
   11.6202   36.3066   30.4689 O   0  0  0  0  0  0  0  0  0  0  0  0
   14.4759   36.3262   33.5739 C   0  0  0  0  0  0  0  0  0  0  0  0
   13.1175   37.6306   34.5699 C   0  0  0  0  0  0  0  0  0  0  0  0
   15.2065   35.6138   32.6746 N   0  0  0  0  0  0  0  0  0  0  0  0
   14.6731   36.2267   34.9191 C   0  0  0  0  0  0  0  0  0  0  0  0
   13.8225   37.0449   35.5793 N   0  0  0  0  0  0  0  0  0  0  0  0
   16.1640   34.7596   33.1551 C   0  0  0  0  0  0  0  0  0  0  0  0
   15.6518   35.3489   35.4136 C   0  0  0  0  0  0  0  0  0  0  0  0
   16.3795   34.6310   34.5046 N   0  0  0  0  0  0  0  0  0  0  0  0
   15.9006   35.1931   36.8094 N   0  0  0  0  0  0  0  0  0  0  0  0
    9.0404   45.4879   33.7304 H   0  0  0  0  0  0  0  0  0  0  0  0
   10.8138   46.9778   33.1252 H   0  0  0  0  0  0  0  0  0  0  0  0
   11.1212   46.1725   34.5476 H   0  0  0  0  0  0  0  0  0  0  0  0
   10.6436   44.6523   31.2094 H   0  0  0  0  0  0  0  0  0  0  0  0
    9.5724   46.0765   31.3092 H   0  0  0  0  0  0  0  0  0  0  0  0
    7.0918   45.5230   32.3028 H   0  0  0  0  0  0  0  0  0  0  0  0
    9.6426   42.7599   30.1931 H   0  0  0  0  0  0  0  0  0  0  0  0
    5.1410   44.1711   31.7204 H   0  0  0  0  0  0  0  0  0  0  0  0
    7.6832   41.3956   29.6163 H   0  0  0  0  0  0  0  0  0  0  0  0
    3.7291   42.1272   31.7374 H   0  0  0  0  0  0  0  0  0  0  0  0
    3.1872   41.3147   30.2211 H   0  0  0  0  0  0  0  0  0  0  0  0
    3.5048   43.0899   30.2080 H   0  0  0  0  0  0  0  0  0  0  0  0
    9.8242   40.7096   31.7652 H   0  0  0  0  0  0  0  0  0  0  0  0
   11.3807   41.5509   31.4774 H   0  0  0  0  0  0  0  0  0  0  0  0
   11.7313   39.5353   30.3536 H   0  0  0  0  0  0  0  0  0  0  0  0
   10.1211   38.2671   32.6414 H   0  0  0  0  0  0  0  0  0  0  0  0
   13.6883   37.4710   31.2320 H   0  0  0  0  0  0  0  0  0  0  0  0
   10.0253   38.1788   29.7658 H   0  0  0  0  0  0  0  0  0  0  0  0
   11.2797   36.3119   32.4911 H   0  0  0  0  0  0  0  0  0  0  0  0
   11.9865   36.9109   29.7712 H   0  0  0  0  0  0  0  0  0  0  0  0
   12.3365   38.3594   34.7454 H   0  0  0  0  0  0  0  0  0  0  0  0
   16.7577   34.1794   32.4622 H   0  0  0  0  0  0  0  0  0  0  0  0
   15.3532   35.7351   37.5144 H   0  0  0  0  0  0  0  0  0  0  0  0
   16.6369   34.5315   37.1418 H   0  0  0  0  0  0  0  0  0  0  0  0
  1  2  2  0
  1  3  1  0
  3  4  1  0
  4  5  1  0
  6  1  1  0
  7  6  1  0
  6  8  1  0
  8  9  1  0
  9 10  2  0
 11  9  1  0
 10 12  1  0
 13 11  2  0
 12 14  2  0
 14 13  1  0
 14 15  1  0
 15 16  1  0
  4 17  2  0
  4 18  1  0
 19 18  1  0
 19 20  1  0
 20 21  1  0
 20 22  1  0
 21 23  1  0
 22 24  1  0
 22 25  1  0
 25 23  1  0
 23 26  1  0
 25 27  1  0
 28 26  1  0
 29 26  1  0
 30 28  2  0
 28 31  1  0
 32 29  2  0
 33 30  1  0
 31 34  2  0
 31 32  1  0
 35 33  2  0
 35 34  1  0
 34 36  1  0
  6 37  1  1
  7 38  1  0
  7 39  1  0
  8 40  1  0
  8 41  1  0
 10 42  1  0
 11 43  1  0
 12 44  1  0
 13 45  1  0
 16 46  1  0
 16 47  1  0
 16 48  1  0
 19 49  1  0
 19 50  1  0
 20 51  1  0
 22 52  1  0
 23 53  1  0
 24 54  1  0
 25 55  1  0
 27 56  1  0
 29 57  1  0
 33 58  1  0
 36 59  1  0
 36 60  1  0
M  CHG  1   5  -1
M  END
>  <EmbedRMS>  (30) 
0.08750364113520531

$$$$

     RDKit          3D

 60 63  0  0  0  0  0  0  0  0999 V2000
   10.2865   43.7697   33.7827 C   0  0  0  0  0  0  0  0  0  0  0  0
   11.4110   43.5816   34.3348 O   0  0  0  0  0  0  0  0  0  0  0  0
    9.3640   42.7312   33.6896 O   0  0  0  0  0  0  0  0  0  0  0  0
    9.8818   41.2348   34.2817 P   0  0  0  0  0  5  0  0  0  0  0  0
   10.3603   41.4747   35.8724 O   0  0  0  0  0  1  0  0  0  0  0  0
    9.9269   45.1413   33.3255 C   0  0  1  0  0  0  0  0  0  0  0  0
   11.0859   46.0262   33.4479 N   0  0  0  0  0  0  0  0  0  0  0  0
    9.2628   45.2062   31.9272 C   0  0  0  0  0  0  0  0  0  0  0  0
   10.0244   44.5163   30.8207 C   0  0  0  0  0  0  0  0  0  0  0  0
    9.5795   43.2799   30.3272 C   0  0  0  0  0  0  0  0  0  0  0  0
   11.1314   45.1332   30.2170 C   0  0  0  0  0  0  0  0  0  0  0  0
   10.2508   42.6528   29.2735 C   0  0  0  0  0  0  0  0  0  0  0  0
   11.8119   44.4990   29.1734 C   0  0  0  0  0  0  0  0  0  0  0  0
   11.3856   43.2535   28.6985 C   0  0  0  0  0  0  0  0  0  0  0  0
   12.1104   42.6504   27.6600 O   0  0  0  0  0  0  0  0  0  0  0  0
   11.8085   41.3735   27.1068 C   0  0  0  0  0  0  0  0  0  0  0  0
    8.8045   40.1918   34.2084 O   0  0  0  0  0  0  0  0  0  0  0  0
   11.2368   40.7791   33.3773 O   0  0  0  0  0  0  0  0  0  0  0  0
   10.9286   40.6871   32.0021 C   0  0  0  0  0  0  0  0  0  0  0  0
   11.5299   39.3866   31.4387 C   0  0  0  0  0  0  0  0  0  0  0  0
   12.7533   39.0867   32.0806 O   0  0  0  0  0  0  0  0  0  0  0  0
   10.6134   38.1906   31.6469 C   0  0  0  0  0  0  0  0  0  0  0  0
   12.9381   37.6804   32.0298 C   0  0  0  0  0  0  0  0  0  0  0  0
    9.6166   38.0869   30.6537 O   0  0  0  0  0  0  0  0  0  0  0  0
   11.5789   37.0137   31.7014 C   0  0  0  0  0  0  0  0  0  0  0  0
   13.4905   37.2155   33.3243 N   0  0  0  0  0  0  0  0  0  0  0  0
   11.6202   36.3258   30.4722 O   0  0  0  0  0  0  0  0  0  0  0  0
   14.4765   36.3259   33.5733 C   0  0  0  0  0  0  0  0  0  0  0  0
   13.1181   37.6301   34.5692 C   0  0  0  0  0  0  0  0  0  0  0  0
   15.2068   35.6131   32.6742 N   0  0  0  0  0  0  0  0  0  0  0  0
   14.6738   36.2267   34.9186 C   0  0  0  0  0  0  0  0  0  0  0  0
   13.8230   37.0449   35.5787 N   0  0  0  0  0  0  0  0  0  0  0  0
   16.1643   34.7590   33.1550 C   0  0  0  0  0  0  0  0  0  0  0  0
   15.6521   35.3488   35.4134 C   0  0  0  0  0  0  0  0  0  0  0  0
   16.3798   34.6307   34.5045 N   0  0  0  0  0  0  0  0  0  0  0  0
   15.9007   35.1931   36.8092 N   0  0  0  0  0  0  0  0  0  0  0  0
    9.1657   45.5091   34.0483 H   0  0  0  0  0  0  0  0  0  0  0  0
   11.8482   45.7041   32.8097 H   0  0  0  0  0  0  0  0  0  0  0  0
   10.8126   46.9929   33.1565 H   0  0  0  0  0  0  0  0  0  0  0  0
    8.2439   44.7663   32.0065 H   0  0  0  0  0  0  0  0  0  0  0  0
    9.1034   46.2698   31.6455 H   0  0  0  0  0  0  0  0  0  0  0  0
    8.7112   42.7976   30.7588 H   0  0  0  0  0  0  0  0  0  0  0  0
   11.4612   46.1114   30.5422 H   0  0  0  0  0  0  0  0  0  0  0  0
    9.8881   41.6952   28.9256 H   0  0  0  0  0  0  0  0  0  0  0  0
   12.6722   44.9809   28.7266 H   0  0  0  0  0  0  0  0  0  0  0  0
   12.5480   41.1375   26.3145 H   0  0  0  0  0  0  0  0  0  0  0  0
   10.7941   41.3831   26.6550 H   0  0  0  0  0  0  0  0  0  0  0  0
   11.8689   40.5924   27.8940 H   0  0  0  0  0  0  0  0  0  0  0  0
    9.8422   40.7306   31.7530 H   0  0  0  0  0  0  0  0  0  0  0  0
   11.4276   41.5402   31.4991 H   0  0  0  0  0  0  0  0  0  0  0  0
   11.7308   39.5315   30.3526 H   0  0  0  0  0  0  0  0  0  0  0  0
   10.1146   38.2733   32.6384 H   0  0  0  0  0  0  0  0  0  0  0  0
   13.6730   37.4593   31.2239 H   0  0  0  0  0  0  0  0  0  0  0  0
   10.0552   38.1172   29.7639 H   0  0  0  0  0  0  0  0  0  0  0  0
   11.2636   36.3135   32.5105 H   0  0  0  0  0  0  0  0  0  0  0  0
   12.1521   35.5027   30.6309 H   0  0  0  0  0  0  0  0  0  0  0  0
   12.3361   38.3579   34.7445 H   0  0  0  0  0  0  0  0  0  0  0  0
   16.7578   34.1785   32.4622 H   0  0  0  0  0  0  0  0  0  0  0  0
   15.3533   35.7353   37.5141 H   0  0  0  0  0  0  0  0  0  0  0  0
   16.6367   34.5314   37.1418 H   0  0  0  0  0  0  0  0  0  0  0  0
  1  2  2  0
  1  3  1  0
  3  4  1  0
  4  5  1  0
  6  1  1  0
  7  6  1  0
  6  8  1  0
  8  9  1  0
  9 10  2  0
 11  9  1  0
 10 12  1  0
 13 11  2  0
 12 14  2  0
 14 13  1  0
 14 15  1  0
 15 16  1  0
  4 17  2  0
  4 18  1  0
 19 18  1  0
 19 20  1  0
 20 21  1  0
 20 22  1  0
 21 23  1  0
 22 24  1  0
 22 25  1  0
 25 23  1  0
 23 26  1  0
 25 27  1  0
 28 26  1  0
 29 26  1  0
 30 28  2  0
 28 31  1  0
 32 29  2  0
 33 30  1  0
 31 34  2  0
 31 32  1  0
 35 33  2  0
 35 34  1  0
 34 36  1  0
  6 37  1  1
  7 38  1  0
  7 39  1  0
  8 40  1  0
  8 41  1  0
 10 42  1  0
 11 43  1  0
 12 44  1  0
 13 45  1  0
 16 46  1  0
 16 47  1  0
 16 48  1  0
 19 49  1  0
 19 50  1  0
 20 51  1  0
 22 52  1  0
 23 53  1  0
 24 54  1  0
 25 55  1  0
 27 56  1  0
 29 57  1  0
 33 58  1  0
 36 59  1  0
 36 60  1  0
M  CHG  1   5  -1
M  END
>  <EmbedRMS>  (31) 
0.09192046920690441

$$$$

     RDKit          3D

 60 63  0  0  0  0  0  0  0  0999 V2000
   10.2906   43.7681   33.8031 C   0  0  0  0  0  0  0  0  0  0  0  0
   11.4118   43.5808   34.3604 O   0  0  0  0  0  0  0  0  0  0  0  0
    9.3647   42.7325   33.7093 O   0  0  0  0  0  0  0  0  0  0  0  0
    9.8845   41.2329   34.2855 P   0  0  0  0  0  5  0  0  0  0  0  0
   10.3661   41.4655   35.8759 O   0  0  0  0  0  1  0  0  0  0  0  0
    9.9697   45.1049   33.2283 C   0  0  1  0  0  0  0  0  0  0  0  0
   11.0568   46.0521   33.4895 N   0  0  0  0  0  0  0  0  0  0  0  0
    9.7166   44.9860   31.7145 C   0  0  0  0  0  0  0  0  0  0  0  0
    9.2972   46.3071   31.1225 C   0  0  0  0  0  0  0  0  0  0  0  0
   10.2445   47.1496   30.5208 C   0  0  0  0  0  0  0  0  0  0  0  0
    7.9610   46.7271   31.2088 C   0  0  0  0  0  0  0  0  0  0  0  0
    9.8568   48.3865   29.9979 C   0  0  0  0  0  0  0  0  0  0  0  0
    7.5736   47.9643   30.6855 C   0  0  0  0  0  0  0  0  0  0  0  0
    8.5231   48.8048   30.0732 C   0  0  0  0  0  0  0  0  0  0  0  0
    8.1850   50.0546   29.5334 O   0  0  0  0  0  0  0  0  0  0  0  0
    6.8716   50.6045   29.5411 C   0  0  0  0  0  0  0  0  0  0  0  0
    8.8072   40.1901   34.2079 O   0  0  0  0  0  0  0  0  0  0  0  0
   11.2374   40.7917   33.3686 O   0  0  0  0  0  0  0  0  0  0  0  0
   10.9182   40.6904   31.9949 C   0  0  0  0  0  0  0  0  0  0  0  0
   11.5166   39.3808   31.4399 C   0  0  0  0  0  0  0  0  0  0  0  0
   12.7474   39.0867   32.0737 O   0  0  0  0  0  0  0  0  0  0  0  0
   10.6029   38.1894   31.6666 C   0  0  0  0  0  0  0  0  0  0  0  0
   12.9333   37.6802   32.0280 C   0  0  0  0  0  0  0  0  0  0  0  0
    9.6396   38.0779   30.6455 O   0  0  0  0  0  0  0  0  0  0  0  0
   11.5738   37.0158   31.7057 C   0  0  0  0  0  0  0  0  0  0  0  0
   13.4903   37.2180   33.3230 N   0  0  0  0  0  0  0  0  0  0  0  0
   11.6211   36.3379   30.4696 O   0  0  0  0  0  0  0  0  0  0  0  0
   14.4760   36.3274   33.5724 C   0  0  0  0  0  0  0  0  0  0  0  0
   13.1179   37.6318   34.5684 C   0  0  0  0  0  0  0  0  0  0  0  0
   15.2063   35.6140   32.6737 N   0  0  0  0  0  0  0  0  0  0  0  0
   14.6733   36.2278   34.9179 C   0  0  0  0  0  0  0  0  0  0  0  0
   13.8225   37.0459   35.5779 N   0  0  0  0  0  0  0  0  0  0  0  0
   16.1635   34.7595   33.1545 C   0  0  0  0  0  0  0  0  0  0  0  0
   15.6515   35.3494   35.4129 C   0  0  0  0  0  0  0  0  0  0  0  0
   16.3790   34.6311   34.5040 N   0  0  0  0  0  0  0  0  0  0  0  0
   15.9001   35.1935   36.8087 N   0  0  0  0  0  0  0  0  0  0  0  0
    9.0440   45.4764   33.7209 H   0  0  0  0  0  0  0  0  0  0  0  0
   11.1827   46.1617   34.5227 H   0  0  0  0  0  0  0  0  0  0  0  0
   11.9530   45.6972   33.0808 H   0  0  0  0  0  0  0  0  0  0  0  0
   10.6327   44.6106   31.2059 H   0  0  0  0  0  0  0  0  0  0  0  0
    8.9153   44.2376   31.5252 H   0  0  0  0  0  0  0  0  0  0  0  0
   11.2835   46.8503   30.4584 H   0  0  0  0  0  0  0  0  0  0  0  0
    7.2196   46.0960   31.6832 H   0  0  0  0  0  0  0  0  0  0  0  0
   10.5973   49.0255   29.5337 H   0  0  0  0  0  0  0  0  0  0  0  0
    6.5360   48.2584   30.7645 H   0  0  0  0  0  0  0  0  0  0  0  0
    6.8920   51.5988   29.0498 H   0  0  0  0  0  0  0  0  0  0  0  0
    6.1779   49.9442   28.9790 H   0  0  0  0  0  0  0  0  0  0  0  0
    6.5169   50.7313   30.5858 H   0  0  0  0  0  0  0  0  0  0  0  0
    9.8302   40.7405   31.7554 H   0  0  0  0  0  0  0  0  0  0  0  0
   11.3989   41.5451   31.4727 H   0  0  0  0  0  0  0  0  0  0  0  0
   11.6979   39.5051   30.3473 H   0  0  0  0  0  0  0  0  0  0  0  0
   10.1085   38.2634   32.6648 H   0  0  0  0  0  0  0  0  0  0  0  0
   13.6654   37.4549   31.2207 H   0  0  0  0  0  0  0  0  0  0  0  0
    8.8967   38.6908   30.8844 H   0  0  0  0  0  0  0  0  0  0  0  0
   11.2845   36.3064   32.5176 H   0  0  0  0  0  0  0  0  0  0  0  0
   10.8523   35.7097   30.4590 H   0  0  0  0  0  0  0  0  0  0  0  0
   12.3354   38.3590   34.7440 H   0  0  0  0  0  0  0  0  0  0  0  0
   16.7569   34.1789   32.4618 H   0  0  0  0  0  0  0  0  0  0  0  0
   16.6359   34.5317   37.1413 H   0  0  0  0  0  0  0  0  0  0  0  0
   15.3529   35.7359   37.5136 H   0  0  0  0  0  0  0  0  0  0  0  0
  1  2  2  0
  1  3  1  0
  3  4  1  0
  4  5  1  0
  6  1  1  0
  7  6  1  0
  6  8  1  0
  8  9  1  0
  9 10  2  0
 11  9  1  0
 10 12  1  0
 13 11  2  0
 12 14  2  0
 14 13  1  0
 14 15  1  0
 15 16  1  0
  4 17  2  0
  4 18  1  0
 19 18  1  0
 19 20  1  0
 20 21  1  0
 20 22  1  0
 21 23  1  0
 22 24  1  0
 22 25  1  0
 25 23  1  0
 23 26  1  0
 25 27  1  0
 28 26  1  0
 29 26  1  0
 30 28  2  0
 28 31  1  0
 32 29  2  0
 33 30  1  0
 31 34  2  0
 31 32  1  0
 35 33  2  0
 35 34  1  0
 34 36  1  0
  6 37  1  1
  7 38  1  0
  7 39  1  0
  8 40  1  0
  8 41  1  0
 10 42  1  0
 11 43  1  0
 12 44  1  0
 13 45  1  0
 16 46  1  0
 16 47  1  0
 16 48  1  0
 19 49  1  0
 19 50  1  0
 20 51  1  0
 22 52  1  0
 23 53  1  0
 24 54  1  0
 25 55  1  0
 27 56  1  0
 29 57  1  0
 33 58  1  0
 36 59  1  0
 36 60  1  0
M  CHG  1   5  -1
M  END
>  <EmbedRMS>  (32) 
0.08986260813082501

$$$$

     RDKit          3D

 60 63  0  0  0  0  0  0  0  0999 V2000
   10.2896   43.7707   33.7895 C   0  0  0  0  0  0  0  0  0  0  0  0
   11.4145   43.5857   34.3411 O   0  0  0  0  0  0  0  0  0  0  0  0
    9.3636   42.7337   33.7100 O   0  0  0  0  0  0  0  0  0  0  0  0
    9.8848   41.2349   34.2868 P   0  0  0  0  0  5  0  0  0  0  0  0
   10.3672   41.4682   35.8766 O   0  0  0  0  0  1  0  0  0  0  0  0
    9.9607   45.1137   33.2266 C   0  0  1  0  0  0  0  0  0  0  0  0
   11.0591   46.0381   33.5132 N   0  0  0  0  0  0  0  0  0  0  0  0
    9.7320   45.0498   31.6987 C   0  0  0  0  0  0  0  0  0  0  0  0
    8.5441   44.2022   31.3077 C   0  0  0  0  0  0  0  0  0  0  0  0
    7.2488   44.5541   31.7201 C   0  0  0  0  0  0  0  0  0  0  0  0
    8.7212   43.0572   30.5155 C   0  0  0  0  0  0  0  0  0  0  0  0
    6.1567   43.7508   31.3798 C   0  0  0  0  0  0  0  0  0  0  0  0
    7.6299   42.2521   30.1787 C   0  0  0  0  0  0  0  0  0  0  0  0
    6.3359   42.5922   30.6156 C   0  0  0  0  0  0  0  0  0  0  0  0
    5.2103   41.8122   30.3117 O   0  0  0  0  0  0  0  0  0  0  0  0
    5.2498   40.6047   29.5581 C   0  0  0  0  0  0  0  0  0  0  0  0
    8.8071   40.1922   34.2103 O   0  0  0  0  0  0  0  0  0  0  0  0
   11.2366   40.7901   33.3703 O   0  0  0  0  0  0  0  0  0  0  0  0
   10.9147   40.6862   31.9980 C   0  0  0  0  0  0  0  0  0  0  0  0
   11.5260   39.3869   31.4380 C   0  0  0  0  0  0  0  0  0  0  0  0
   12.7493   39.0891   32.0825 O   0  0  0  0  0  0  0  0  0  0  0  0
   10.6122   38.1890   31.6464 C   0  0  0  0  0  0  0  0  0  0  0  0
   12.9373   37.6826   32.0302 C   0  0  0  0  0  0  0  0  0  0  0  0
    9.6149   38.0845   30.6539 O   0  0  0  0  0  0  0  0  0  0  0  0
   11.5793   37.0135   31.7012 C   0  0  0  0  0  0  0  0  0  0  0  0
   13.4905   37.2167   33.3243 N   0  0  0  0  0  0  0  0  0  0  0  0
   11.6215   36.3256   30.4720 O   0  0  0  0  0  0  0  0  0  0  0  0
   14.4763   36.3265   33.5731 C   0  0  0  0  0  0  0  0  0  0  0  0
   13.1181   37.6307   34.5694 C   0  0  0  0  0  0  0  0  0  0  0  0
   15.2065   35.6136   32.6740 N   0  0  0  0  0  0  0  0  0  0  0  0
   14.6736   36.2269   34.9185 C   0  0  0  0  0  0  0  0  0  0  0  0
   13.8229   37.0450   35.5788 N   0  0  0  0  0  0  0  0  0  0  0  0
   16.1639   34.7593   33.1547 C   0  0  0  0  0  0  0  0  0  0  0  0
   15.6519   35.3489   35.4132 C   0  0  0  0  0  0  0  0  0  0  0  0
   16.3795   34.6308   34.5042 N   0  0  0  0  0  0  0  0  0  0  0  0
   15.9006   35.1931   36.8090 N   0  0  0  0  0  0  0  0  0  0  0  0
    9.0386   45.4862   33.7259 H   0  0  0  0  0  0  0  0  0  0  0  0
   10.8130   46.9782   33.1256 H   0  0  0  0  0  0  0  0  0  0  0  0
   11.1159   46.1738   34.5497 H   0  0  0  0  0  0  0  0  0  0  0  0
   10.6589   44.6778   31.2079 H   0  0  0  0  0  0  0  0  0  0  0  0
    9.5553   46.0770   31.3119 H   0  0  0  0  0  0  0  0  0  0  0  0
    7.0840   45.4470   32.3097 H   0  0  0  0  0  0  0  0  0  0  0  0
    9.7059   42.7823   30.1609 H   0  0  0  0  0  0  0  0  0  0  0  0
    5.1652   44.0285   31.7142 H   0  0  0  0  0  0  0  0  0  0  0  0
    7.8037   41.3687   29.5796 H   0  0  0  0  0  0  0  0  0  0  0  0
    5.8928   39.8568   30.0688 H   0  0  0  0  0  0  0  0  0  0  0  0
    5.6343   40.8050   28.5358 H   0  0  0  0  0  0  0  0  0  0  0  0
    4.2226   40.1941   29.4772 H   0  0  0  0  0  0  0  0  0  0  0  0
    9.8244   40.7084   31.7648 H   0  0  0  0  0  0  0  0  0  0  0  0
   11.3819   41.5482   31.4763 H   0  0  0  0  0  0  0  0  0  0  0  0
   11.7284   39.5302   30.3520 H   0  0  0  0  0  0  0  0  0  0  0  0
   10.1136   38.2707   32.6382 H   0  0  0  0  0  0  0  0  0  0  0  0
   13.6726   37.4637   31.2241 H   0  0  0  0  0  0  0  0  0  0  0  0
   10.0532   38.1121   29.7639 H   0  0  0  0  0  0  0  0  0  0  0  0
   11.2646   36.3130   32.5102 H   0  0  0  0  0  0  0  0  0  0  0  0
   12.1550   35.5036   30.6307 H   0  0  0  0  0  0  0  0  0  0  0  0
   12.3361   38.3584   34.7450 H   0  0  0  0  0  0  0  0  0  0  0  0
   16.7574   34.1788   32.4619 H   0  0  0  0  0  0  0  0  0  0  0  0
   16.6366   34.5314   37.1415 H   0  0  0  0  0  0  0  0  0  0  0  0
   15.3533   35.7353   37.5139 H   0  0  0  0  0  0  0  0  0  0  0  0
  1  2  2  0
  1  3  1  0
  3  4  1  0
  4  5  1  0
  6  1  1  0
  7  6  1  0
  6  8  1  0
  8  9  1  0
  9 10  2  0
 11  9  1  0
 10 12  1  0
 13 11  2  0
 12 14  2  0
 14 13  1  0
 14 15  1  0
 15 16  1  0
  4 17  2  0
  4 18  1  0
 19 18  1  0
 19 20  1  0
 20 21  1  0
 20 22  1  0
 21 23  1  0
 22 24  1  0
 22 25  1  0
 25 23  1  0
 23 26  1  0
 25 27  1  0
 28 26  1  0
 29 26  1  0
 30 28  2  0
 28 31  1  0
 32 29  2  0
 33 30  1  0
 31 34  2  0
 31 32  1  0
 35 33  2  0
 35 34  1  0
 34 36  1  0
  6 37  1  1
  7 38  1  0
  7 39  1  0
  8 40  1  0
  8 41  1  0
 10 42  1  0
 11 43  1  0
 12 44  1  0
 13 45  1  0
 16 46  1  0
 16 47  1  0
 16 48  1  0
 19 49  1  0
 19 50  1  0
 20 51  1  0
 22 52  1  0
 23 53  1  0
 24 54  1  0
 25 55  1  0
 27 56  1  0
 29 57  1  0
 33 58  1  0
 36 59  1  0
 36 60  1  0
M  CHG  1   5  -1
M  END
>  <EmbedRMS>  (33) 
0.08854324308652882

$$$$

     RDKit          3D

 60 63  0  0  0  0  0  0  0  0999 V2000
   10.2880   43.7719   33.8023 C   0  0  0  0  0  0  0  0  0  0  0  0
   11.4129   43.5865   34.3533 O   0  0  0  0  0  0  0  0  0  0  0  0
    9.3633   42.7344   33.7121 O   0  0  0  0  0  0  0  0  0  0  0  0
    9.8852   41.2346   34.2857 P   0  0  0  0  0  5  0  0  0  0  0  0
   10.3686   41.4661   35.8757 O   0  0  0  0  0  1  0  0  0  0  0  0
    9.9689   45.1018   33.2140 C   0  0  1  0  0  0  0  0  0  0  0  0
   11.0575   46.0377   33.5063 N   0  0  0  0  0  0  0  0  0  0  0  0
    9.7793   44.9515   31.6901 C   0  0  0  0  0  0  0  0  0  0  0  0
    9.2570   46.2170   31.0581 C   0  0  0  0  0  0  0  0  0  0  0  0
    7.9015   46.5587   31.1805 C   0  0  0  0  0  0  0  0  0  0  0  0
   10.1225   47.0788   30.3665 C   0  0  0  0  0  0  0  0  0  0  0  0
    7.4177   47.7404   30.6123 C   0  0  0  0  0  0  0  0  0  0  0  0
    9.6381   48.2610   29.7986 C   0  0  0  0  0  0  0  0  0  0  0  0
    8.2767   48.6001   29.9181 C   0  0  0  0  0  0  0  0  0  0  0  0
    7.7424   49.7741   29.3667 O   0  0  0  0  0  0  0  0  0  0  0  0
    8.4982   50.7365   28.6388 C   0  0  0  0  0  0  0  0  0  0  0  0
    8.8079   40.1915   34.2093 O   0  0  0  0  0  0  0  0  0  0  0  0
   11.2365   40.7937   33.3657 O   0  0  0  0  0  0  0  0  0  0  0  0
   10.9125   40.6862   31.9933 C   0  0  0  0  0  0  0  0  0  0  0  0
   11.5158   39.3782   31.4399 C   0  0  0  0  0  0  0  0  0  0  0  0
   12.7465   39.0862   32.0746 O   0  0  0  0  0  0  0  0  0  0  0  0
   10.6043   38.1871   31.6670 C   0  0  0  0  0  0  0  0  0  0  0  0
   12.9343   37.6798   32.0284 C   0  0  0  0  0  0  0  0  0  0  0  0
    9.6377   38.0920   30.6487 O   0  0  0  0  0  0  0  0  0  0  0  0
   11.5760   37.0134   31.7057 C   0  0  0  0  0  0  0  0  0  0  0  0
   13.4909   37.2180   33.3233 N   0  0  0  0  0  0  0  0  0  0  0  0
   11.6234   36.3375   30.4685 O   0  0  0  0  0  0  0  0  0  0  0  0
   14.4764   36.3273   33.5727 C   0  0  0  0  0  0  0  0  0  0  0  0
   13.1182   37.6317   34.5686 C   0  0  0  0  0  0  0  0  0  0  0  0
   15.2065   35.6139   32.6738 N   0  0  0  0  0  0  0  0  0  0  0  0
   14.6735   36.2276   34.9181 C   0  0  0  0  0  0  0  0  0  0  0  0
   13.8227   37.0458   35.5781 N   0  0  0  0  0  0  0  0  0  0  0  0
   16.1637   34.7593   33.1547 C   0  0  0  0  0  0  0  0  0  0  0  0
   15.6516   35.3493   35.4130 C   0  0  0  0  0  0  0  0  0  0  0  0
   16.3792   34.6310   34.5042 N   0  0  0  0  0  0  0  0  0  0  0  0
   15.9002   35.1934   36.8089 N   0  0  0  0  0  0  0  0  0  0  0  0
    9.0244   45.4685   33.6760 H   0  0  0  0  0  0  0  0  0  0  0  0
   10.7938   46.9819   33.1433 H   0  0  0  0  0  0  0  0  0  0  0  0
   11.1203   46.1575   34.5443 H   0  0  0  0  0  0  0  0  0  0  0  0
    9.0543   44.1343   31.4783 H   0  0  0  0  0  0  0  0  0  0  0  0
   10.7433   44.6525   31.2212 H   0  0  0  0  0  0  0  0  0  0  0  0
    7.2203   45.9099   31.7172 H   0  0  0  0  0  0  0  0  0  0  0  0
   11.1741   46.8379   30.2703 H   0  0  0  0  0  0  0  0  0  0  0  0
    6.3692   47.9909   30.7132 H   0  0  0  0  0  0  0  0  0  0  0  0
   10.3296   48.9040   29.2716 H   0  0  0  0  0  0  0  0  0  0  0  0
    9.2986   51.1593   29.2821 H   0  0  0  0  0  0  0  0  0  0  0  0
    7.8264   51.5597   28.3204 H   0  0  0  0  0  0  0  0  0  0  0  0
    8.9415   50.2692   27.7342 H   0  0  0  0  0  0  0  0  0  0  0  0
   11.3834   41.5432   31.4658 H   0  0  0  0  0  0  0  0  0  0  0  0
    9.8221   40.7218   31.7582 H   0  0  0  0  0  0  0  0  0  0  0  0
   11.6981   39.5023   30.3473 H   0  0  0  0  0  0  0  0  0  0  0  0
   10.1090   38.2773   32.6628 H   0  0  0  0  0  0  0  0  0  0  0  0
   13.6670   37.4557   31.2213 H   0  0  0  0  0  0  0  0  0  0  0  0
    8.9778   37.4159   30.9531 H   0  0  0  0  0  0  0  0  0  0  0  0
   11.2860   36.3046   32.5178 H   0  0  0  0  0  0  0  0  0  0  0  0
   10.8690   35.6922   30.4658 H   0  0  0  0  0  0  0  0  0  0  0  0
   12.3356   38.3588   34.7441 H   0  0  0  0  0  0  0  0  0  0  0  0
   16.7571   34.1787   32.4620 H   0  0  0  0  0  0  0  0  0  0  0  0
   16.6361   34.5315   37.1414 H   0  0  0  0  0  0  0  0  0  0  0  0
   15.3530   35.7358   37.5137 H   0  0  0  0  0  0  0  0  0  0  0  0
  1  2  2  0
  1  3  1  0
  3  4  1  0
  4  5  1  0
  6  1  1  0
  7  6  1  0
  6  8  1  0
  8  9  1  0
  9 10  2  0
 11  9  1  0
 10 12  1  0
 13 11  2  0
 12 14  2  0
 14 13  1  0
 14 15  1  0
 15 16  1  0
  4 17  2  0
  4 18  1  0
 19 18  1  0
 19 20  1  0
 20 21  1  0
 20 22  1  0
 21 23  1  0
 22 24  1  0
 22 25  1  0
 25 23  1  0
 23 26  1  0
 25 27  1  0
 28 26  1  0
 29 26  1  0
 30 28  2  0
 28 31  1  0
 32 29  2  0
 33 30  1  0
 31 34  2  0
 31 32  1  0
 35 33  2  0
 35 34  1  0
 34 36  1  0
  6 37  1  1
  7 38  1  0
  7 39  1  0
  8 40  1  0
  8 41  1  0
 10 42  1  0
 11 43  1  0
 12 44  1  0
 13 45  1  0
 16 46  1  0
 16 47  1  0
 16 48  1  0
 19 49  1  0
 19 50  1  0
 20 51  1  0
 22 52  1  0
 23 53  1  0
 24 54  1  0
 25 55  1  0
 27 56  1  0
 29 57  1  0
 33 58  1  0
 36 59  1  0
 36 60  1  0
M  CHG  1   5  -1
M  END
>  <EmbedRMS>  (34) 
0.08894189603996445

$$$$

     RDKit          3D

 60 63  0  0  0  0  0  0  0  0999 V2000
   10.2903   43.7683   33.8032 C   0  0  0  0  0  0  0  0  0  0  0  0
   11.4117   43.5808   34.3603 O   0  0  0  0  0  0  0  0  0  0  0  0
    9.3641   42.7329   33.7098 O   0  0  0  0  0  0  0  0  0  0  0  0
    9.8840   41.2334   34.2858 P   0  0  0  0  0  5  0  0  0  0  0  0
   10.3668   41.4655   35.8759 O   0  0  0  0  0  1  0  0  0  0  0  0
    9.9696   45.1050   33.2284 C   0  0  1  0  0  0  0  0  0  0  0  0
   11.0569   46.0522   33.4894 N   0  0  0  0  0  0  0  0  0  0  0  0
    9.7163   44.9860   31.7147 C   0  0  0  0  0  0  0  0  0  0  0  0
    9.2975   46.3072   31.1224 C   0  0  0  0  0  0  0  0  0  0  0  0
   10.2453   47.1493   30.5205 C   0  0  0  0  0  0  0  0  0  0  0  0
    7.9616   46.7279   31.2086 C   0  0  0  0  0  0  0  0  0  0  0  0
    9.8597   48.3869   29.9968 C   0  0  0  0  0  0  0  0  0  0  0  0
    7.5766   47.9651   30.6846 C   0  0  0  0  0  0  0  0  0  0  0  0
    8.5169   48.8037   30.0750 C   0  0  0  0  0  0  0  0  0  0  0  0
    8.0802   50.0352   29.5648 O   0  0  0  0  0  0  0  0  0  0  0  0
    8.9253   50.9842   28.9225 C   0  0  0  0  0  0  0  0  0  0  0  0
    8.8066   40.1905   34.2089 O   0  0  0  0  0  0  0  0  0  0  0  0
   11.2356   40.7927   33.3671 O   0  0  0  0  0  0  0  0  0  0  0  0
   10.9121   40.6870   31.9947 C   0  0  0  0  0  0  0  0  0  0  0  0
   11.5163   39.3804   31.4412 C   0  0  0  0  0  0  0  0  0  0  0  0
   12.7482   39.0893   32.0767 O   0  0  0  0  0  0  0  0  0  0  0  0
   10.6048   38.1880   31.6659 C   0  0  0  0  0  0  0  0  0  0  0  0
   12.9410   37.6834   32.0279 C   0  0  0  0  0  0  0  0  0  0  0  0
    9.6357   38.0932   30.6501 O   0  0  0  0  0  0  0  0  0  0  0  0
   11.5826   37.0183   31.6937 C   0  0  0  0  0  0  0  0  0  0  0  0
   13.4908   37.2179   33.3239 N   0  0  0  0  0  0  0  0  0  0  0  0
   11.6141   36.3183   30.4676 O   0  0  0  0  0  0  0  0  0  0  0  0
   14.4762   36.3271   33.5733 C   0  0  0  0  0  0  0  0  0  0  0  0
   13.1179   37.6318   34.5689 C   0  0  0  0  0  0  0  0  0  0  0  0
   15.2066   35.6141   32.6743 N   0  0  0  0  0  0  0  0  0  0  0  0
   14.6731   36.2273   34.9186 C   0  0  0  0  0  0  0  0  0  0  0  0
   13.8223   37.0456   35.5785 N   0  0  0  0  0  0  0  0  0  0  0  0
   16.1638   34.7595   33.1550 C   0  0  0  0  0  0  0  0  0  0  0  0
   15.6515   35.3491   35.4134 C   0  0  0  0  0  0  0  0  0  0  0  0
   16.3792   34.6310   34.5045 N   0  0  0  0  0  0  0  0  0  0  0  0
   15.9002   35.1933   36.8092 N   0  0  0  0  0  0  0  0  0  0  0  0
    9.0440   45.4768   33.7211 H   0  0  0  0  0  0  0  0  0  0  0  0
   11.9530   45.6972   33.0805 H   0  0  0  0  0  0  0  0  0  0  0  0
   11.1829   46.1618   34.5225 H   0  0  0  0  0  0  0  0  0  0  0  0
   10.6321   44.6100   31.2060 H   0  0  0  0  0  0  0  0  0  0  0  0
    8.9145   44.2380   31.5256 H   0  0  0  0  0  0  0  0  0  0  0  0
   11.2839   46.8485   30.4586 H   0  0  0  0  0  0  0  0  0  0  0  0
    7.2192   46.0979   31.6829 H   0  0  0  0  0  0  0  0  0  0  0  0
   10.6126   49.0121   29.5366 H   0  0  0  0  0  0  0  0  0  0  0  0
    6.5418   48.2758   30.7551 H   0  0  0  0  0  0  0  0  0  0  0  0
    8.3195   51.8627   28.6197 H   0  0  0  0  0  0  0  0  0  0  0  0
    9.3811   50.5364   28.0142 H   0  0  0  0  0  0  0  0  0  0  0  0
    9.7189   51.3233   29.6213 H   0  0  0  0  0  0  0  0  0  0  0  0
   11.3829   41.5448   31.4684 H   0  0  0  0  0  0  0  0  0  0  0  0
    9.8218   40.7217   31.7588 H   0  0  0  0  0  0  0  0  0  0  0  0
   11.6990   39.5073   30.3491 H   0  0  0  0  0  0  0  0  0  0  0  0
   10.1116   38.2724   32.6631 H   0  0  0  0  0  0  0  0  0  0  0  0
   13.6814   37.4642   31.2269 H   0  0  0  0  0  0  0  0  0  0  0  0
    9.0036   37.3829   30.9347 H   0  0  0  0  0  0  0  0  0  0  0  0
   11.2846   36.3045   32.4929 H   0  0  0  0  0  0  0  0  0  0  0  0
   11.8848   36.9593   29.7589 H   0  0  0  0  0  0  0  0  0  0  0  0
   12.3363   38.3600   34.7442 H   0  0  0  0  0  0  0  0  0  0  0  0
   16.7573   34.1791   32.4622 H   0  0  0  0  0  0  0  0  0  0  0  0
   15.3529   35.7356   37.5141 H   0  0  0  0  0  0  0  0  0  0  0  0
   16.6362   34.5317   37.1417 H   0  0  0  0  0  0  0  0  0  0  0  0
  1  2  2  0
  1  3  1  0
  3  4  1  0
  4  5  1  0
  6  1  1  0
  7  6  1  0
  6  8  1  0
  8  9  1  0
  9 10  2  0
 11  9  1  0
 10 12  1  0
 13 11  2  0
 12 14  2  0
 14 13  1  0
 14 15  1  0
 15 16  1  0
  4 17  2  0
  4 18  1  0
 19 18  1  0
 19 20  1  0
 20 21  1  0
 20 22  1  0
 21 23  1  0
 22 24  1  0
 22 25  1  0
 25 23  1  0
 23 26  1  0
 25 27  1  0
 28 26  1  0
 29 26  1  0
 30 28  2  0
 28 31  1  0
 32 29  2  0
 33 30  1  0
 31 34  2  0
 31 32  1  0
 35 33  2  0
 35 34  1  0
 34 36  1  0
  6 37  1  1
  7 38  1  0
  7 39  1  0
  8 40  1  0
  8 41  1  0
 10 42  1  0
 11 43  1  0
 12 44  1  0
 13 45  1  0
 16 46  1  0
 16 47  1  0
 16 48  1  0
 19 49  1  0
 19 50  1  0
 20 51  1  0
 22 52  1  0
 23 53  1  0
 24 54  1  0
 25 55  1  0
 27 56  1  0
 29 57  1  0
 33 58  1  0
 36 59  1  0
 36 60  1  0
M  CHG  1   5  -1
M  END
>  <EmbedRMS>  (35) 
0.08827623597364787

$$$$

     RDKit          3D

 60 63  0  0  0  0  0  0  0  0999 V2000
   10.2903   43.7705   33.7883 C   0  0  0  0  0  0  0  0  0  0  0  0
   11.4121   43.5889   34.3470 O   0  0  0  0  0  0  0  0  0  0  0  0
    9.3648   42.7331   33.7091 O   0  0  0  0  0  0  0  0  0  0  0  0
    9.8859   41.2347   34.2865 P   0  0  0  0  0  5  0  0  0  0  0  0
   10.3674   41.4682   35.8766 O   0  0  0  0  0  1  0  0  0  0  0  0
    9.9596   45.1125   33.2282 C   0  0  1  0  0  0  0  0  0  0  0  0
   11.0608   46.0355   33.5098 N   0  0  0  0  0  0  0  0  0  0  0  0
    9.6792   45.0616   31.7063 C   0  0  0  0  0  0  0  0  0  0  0  0
    8.4682   44.2305   31.3548 C   0  0  0  0  0  0  0  0  0  0  0  0
    8.6093   43.0599   30.5933 C   0  0  0  0  0  0  0  0  0  0  0  0
    7.1890   44.6161   31.7857 C   0  0  0  0  0  0  0  0  0  0  0  0
    7.4973   42.2655   30.3018 C   0  0  0  0  0  0  0  0  0  0  0  0
    6.0759   43.8238   31.4899 C   0  0  0  0  0  0  0  0  0  0  0  0
    6.2189   42.6413   30.7548 C   0  0  0  0  0  0  0  0  0  0  0  0
    5.0738   41.8734   30.4964 O   0  0  0  0  0  0  0  0  0  0  0  0
    5.0768   40.6442   29.7777 C   0  0  0  0  0  0  0  0  0  0  0  0
    8.8082   40.1920   34.2094 O   0  0  0  0  0  0  0  0  0  0  0  0
   11.2384   40.7909   33.3701 O   0  0  0  0  0  0  0  0  0  0  0  0
   10.9173   40.6866   31.9974 C   0  0  0  0  0  0  0  0  0  0  0  0
   11.5178   39.3799   31.4410 C   0  0  0  0  0  0  0  0  0  0  0  0
   12.7483   39.0874   32.0756 O   0  0  0  0  0  0  0  0  0  0  0  0
   10.6050   38.1871   31.6654 C   0  0  0  0  0  0  0  0  0  0  0  0
   12.9359   37.6816   32.0289 C   0  0  0  0  0  0  0  0  0  0  0  0
    9.6422   38.0743   30.6438 O   0  0  0  0  0  0  0  0  0  0  0  0
   11.5764   37.0157   31.7044 C   0  0  0  0  0  0  0  0  0  0  0  0
   13.4906   37.2180   33.3237 N   0  0  0  0  0  0  0  0  0  0  0  0
   11.6103   36.3400   30.4678 O   0  0  0  0  0  0  0  0  0  0  0  0
   14.4761   36.3273   33.5728 C   0  0  0  0  0  0  0  0  0  0  0  0
   13.1180   37.6317   34.5689 C   0  0  0  0  0  0  0  0  0  0  0  0
   15.2063   35.6140   32.6739 N   0  0  0  0  0  0  0  0  0  0  0  0
   14.6733   36.2275   34.9182 C   0  0  0  0  0  0  0  0  0  0  0  0
   13.8226   37.0456   35.5783 N   0  0  0  0  0  0  0  0  0  0  0  0
   16.1636   34.7595   33.1546 C   0  0  0  0  0  0  0  0  0  0  0  0
   15.6515   35.3492   35.4130 C   0  0  0  0  0  0  0  0  0  0  0  0
   16.3791   34.6310   34.5041 N   0  0  0  0  0  0  0  0  0  0  0  0
   15.9003   35.1933   36.8089 N   0  0  0  0  0  0  0  0  0  0  0  0
    9.0544   45.4829   33.7571 H   0  0  0  0  0  0  0  0  0  0  0  0
   11.8813   45.8029   32.9025 H   0  0  0  0  0  0  0  0  0  0  0  0
   10.7564   47.0048   33.2601 H   0  0  0  0  0  0  0  0  0  0  0  0
   10.5809   44.6780   31.1790 H   0  0  0  0  0  0  0  0  0  0  0  0
    9.5056   46.0947   31.3344 H   0  0  0  0  0  0  0  0  0  0  0  0
    9.5822   42.7561   30.2295 H   0  0  0  0  0  0  0  0  0  0  0  0
    7.0537   45.5259   32.3568 H   0  0  0  0  0  0  0  0  0  0  0  0
    7.6433   41.3620   29.7256 H   0  0  0  0  0  0  0  0  0  0  0  0
    5.0968   44.1279   31.8376 H   0  0  0  0  0  0  0  0  0  0  0  0
    4.0412   40.2497   29.7296 H   0  0  0  0  0  0  0  0  0  0  0  0
    5.4433   40.8081   28.7423 H   0  0  0  0  0  0  0  0  0  0  0  0
    5.7174   39.9000   30.2967 H   0  0  0  0  0  0  0  0  0  0  0  0
   11.3936   41.5426   31.4738 H   0  0  0  0  0  0  0  0  0  0  0  0
    9.8286   40.7249   31.7633 H   0  0  0  0  0  0  0  0  0  0  0  0
   11.6996   39.5061   30.3486 H   0  0  0  0  0  0  0  0  0  0  0  0
   10.1092   38.2608   32.6630 H   0  0  0  0  0  0  0  0  0  0  0  0
   13.6695   37.4589   31.2224 H   0  0  0  0  0  0  0  0  0  0  0  0
    8.9035   38.6950   30.8761 H   0  0  0  0  0  0  0  0  0  0  0  0
   11.2688   36.3067   32.5088 H   0  0  0  0  0  0  0  0  0  0  0  0
   12.1429   35.5152   30.6150 H   0  0  0  0  0  0  0  0  0  0  0  0
   12.3358   38.3592   34.7445 H   0  0  0  0  0  0  0  0  0  0  0  0
   16.7569   34.1789   32.4618 H   0  0  0  0  0  0  0  0  0  0  0  0
   15.3530   35.7356   37.5138 H   0  0  0  0  0  0  0  0  0  0  0  0
   16.6362   34.5315   37.1413 H   0  0  0  0  0  0  0  0  0  0  0  0
  1  2  2  0
  1  3  1  0
  3  4  1  0
  4  5  1  0
  6  1  1  0
  7  6  1  0
  6  8  1  0
  8  9  1  0
  9 10  2  0
 11  9  1  0
 10 12  1  0
 13 11  2  0
 12 14  2  0
 14 13  1  0
 14 15  1  0
 15 16  1  0
  4 17  2  0
  4 18  1  0
 19 18  1  0
 19 20  1  0
 20 21  1  0
 20 22  1  0
 21 23  1  0
 22 24  1  0
 22 25  1  0
 25 23  1  0
 23 26  1  0
 25 27  1  0
 28 26  1  0
 29 26  1  0
 30 28  2  0
 28 31  1  0
 32 29  2  0
 33 30  1  0
 31 34  2  0
 31 32  1  0
 35 33  2  0
 35 34  1  0
 34 36  1  0
  6 37  1  1
  7 38  1  0
  7 39  1  0
  8 40  1  0
  8 41  1  0
 10 42  1  0
 11 43  1  0
 12 44  1  0
 13 45  1  0
 16 46  1  0
 16 47  1  0
 16 48  1  0
 19 49  1  0
 19 50  1  0
 20 51  1  0
 22 52  1  0
 23 53  1  0
 24 54  1  0
 25 55  1  0
 27 56  1  0
 29 57  1  0
 33 58  1  0
 36 59  1  0
 36 60  1  0
M  CHG  1   5  -1
M  END
>  <EmbedRMS>  (36) 
0.0897081157927495

$$$$

     RDKit          3D

 60 63  0  0  0  0  0  0  0  0999 V2000
   10.2939   43.7721   33.7965 C   0  0  0  0  0  0  0  0  0  0  0  0
   11.4139   43.5898   34.3579 O   0  0  0  0  0  0  0  0  0  0  0  0
    9.3667   42.7362   33.7093 O   0  0  0  0  0  0  0  0  0  0  0  0
    9.8866   41.2364   34.2848 P   0  0  0  0  0  5  0  0  0  0  0  0
   10.3704   41.4674   35.8747 O   0  0  0  0  0  1  0  0  0  0  0  0
    9.9760   45.1034   33.2099 C   0  0  1  0  0  0  0  0  0  0  0  0
   11.0441   46.0544   33.5250 N   0  0  0  0  0  0  0  0  0  0  0  0
    9.7490   45.0010   31.6779 C   0  0  0  0  0  0  0  0  0  0  0  0
   10.9951   45.2127   30.8396 C   0  0  0  0  0  0  0  0  0  0  0  0
   12.1327   44.4077   31.0148 C   0  0  0  0  0  0  0  0  0  0  0  0
   11.0138   46.2071   29.8470 C   0  0  0  0  0  0  0  0  0  0  0  0
   13.2675   44.5969   30.2211 C   0  0  0  0  0  0  0  0  0  0  0  0
   12.1488   46.3962   29.0535 C   0  0  0  0  0  0  0  0  0  0  0  0
   13.2826   45.5964   29.2310 C   0  0  0  0  0  0  0  0  0  0  0  0
   14.3959   45.8252   28.4089 O   0  0  0  0  0  0  0  0  0  0  0  0
   15.6118   45.0875   28.4793 C   0  0  0  0  0  0  0  0  0  0  0  0
    8.8088   40.1935   34.2089 O   0  0  0  0  0  0  0  0  0  0  0  0
   11.2363   40.7968   33.3622 O   0  0  0  0  0  0  0  0  0  0  0  0
   10.9042   40.6786   31.9924 C   0  0  0  0  0  0  0  0  0  0  0  0
   11.5139   39.3757   31.4414 C   0  0  0  0  0  0  0  0  0  0  0  0
   12.7459   39.0880   32.0775 O   0  0  0  0  0  0  0  0  0  0  0  0
   10.6042   38.1835   31.6663 C   0  0  0  0  0  0  0  0  0  0  0  0
   12.9409   37.6827   32.0281 C   0  0  0  0  0  0  0  0  0  0  0  0
    9.6351   38.0893   30.6505 O   0  0  0  0  0  0  0  0  0  0  0  0
   11.5834   37.0157   31.6933 C   0  0  0  0  0  0  0  0  0  0  0  0
   13.4909   37.2176   33.3241 N   0  0  0  0  0  0  0  0  0  0  0  0
   11.6154   36.3169   30.4667 O   0  0  0  0  0  0  0  0  0  0  0  0
   14.4763   36.3270   33.5734 C   0  0  0  0  0  0  0  0  0  0  0  0
   13.1180   37.6316   34.5690 C   0  0  0  0  0  0  0  0  0  0  0  0
   15.2067   35.6140   32.6744 N   0  0  0  0  0  0  0  0  0  0  0  0
   14.6732   36.2272   34.9187 C   0  0  0  0  0  0  0  0  0  0  0  0
   13.8224   37.0456   35.5786 N   0  0  0  0  0  0  0  0  0  0  0  0
   16.1639   34.7595   33.1551 C   0  0  0  0  0  0  0  0  0  0  0  0
   15.6516   35.3491   35.4135 C   0  0  0  0  0  0  0  0  0  0  0  0
   16.3793   34.6310   34.5045 N   0  0  0  0  0  0  0  0  0  0  0  0
   15.9003   35.1933   36.8093 N   0  0  0  0  0  0  0  0  0  0  0  0
    9.0287   45.4515   33.6810 H   0  0  0  0  0  0  0  0  0  0  0  0
   10.7872   46.9814   33.1133 H   0  0  0  0  0  0  0  0  0  0  0  0
   11.0603   46.2028   34.5610 H   0  0  0  0  0  0  0  0  0  0  0  0
    8.9871   45.7636   31.4034 H   0  0  0  0  0  0  0  0  0  0  0  0
    9.3003   44.0201   31.4078 H   0  0  0  0  0  0  0  0  0  0  0  0
   12.1533   43.6424   31.7745 H   0  0  0  0  0  0  0  0  0  0  0  0
   10.1496   46.8388   29.6836 H   0  0  0  0  0  0  0  0  0  0  0  0
   14.1271   43.9619   30.3868 H   0  0  0  0  0  0  0  0  0  0  0  0
   12.1467   47.1681   28.2943 H   0  0  0  0  0  0  0  0  0  0  0  0
   15.4197   44.0139   28.2701 H   0  0  0  0  0  0  0  0  0  0  0  0
   16.0722   45.2052   29.4830 H   0  0  0  0  0  0  0  0  0  0  0  0
   16.3170   45.4774   27.7171 H   0  0  0  0  0  0  0  0  0  0  0  0
   11.3642   41.5280   31.4512 H   0  0  0  0  0  0  0  0  0  0  0  0
    9.8124   40.7061   31.7630 H   0  0  0  0  0  0  0  0  0  0  0  0
   11.6969   39.5017   30.3490 H   0  0  0  0  0  0  0  0  0  0  0  0
   10.1111   38.2667   32.6638 H   0  0  0  0  0  0  0  0  0  0  0  0
   13.6820   37.4648   31.2273 H   0  0  0  0  0  0  0  0  0  0  0  0
    9.0037   37.3780   30.9341 H   0  0  0  0  0  0  0  0  0  0  0  0
   11.2864   36.3007   32.4920 H   0  0  0  0  0  0  0  0  0  0  0  0
   11.8865   36.9585   29.7586 H   0  0  0  0  0  0  0  0  0  0  0  0
   12.3363   38.3598   34.7442 H   0  0  0  0  0  0  0  0  0  0  0  0
   16.7574   34.1790   32.4623 H   0  0  0  0  0  0  0  0  0  0  0  0
   15.3530   35.7355   37.5141 H   0  0  0  0  0  0  0  0  0  0  0  0
   16.6363   34.5316   37.1418 H   0  0  0  0  0  0  0  0  0  0  0  0
  1  2  2  0
  1  3  1  0
  3  4  1  0
  4  5  1  0
  6  1  1  0
  7  6  1  0
  6  8  1  0
  8  9  1  0
  9 10  2  0
 11  9  1  0
 10 12  1  0
 13 11  2  0
 12 14  2  0
 14 13  1  0
 14 15  1  0
 15 16  1  0
  4 17  2  0
  4 18  1  0
 19 18  1  0
 19 20  1  0
 20 21  1  0
 20 22  1  0
 21 23  1  0
 22 24  1  0
 22 25  1  0
 25 23  1  0
 23 26  1  0
 25 27  1  0
 28 26  1  0
 29 26  1  0
 30 28  2  0
 28 31  1  0
 32 29  2  0
 33 30  1  0
 31 34  2  0
 31 32  1  0
 35 33  2  0
 35 34  1  0
 34 36  1  0
  6 37  1  1
  7 38  1  0
  7 39  1  0
  8 40  1  0
  8 41  1  0
 10 42  1  0
 11 43  1  0
 12 44  1  0
 13 45  1  0
 16 46  1  0
 16 47  1  0
 16 48  1  0
 19 49  1  0
 19 50  1  0
 20 51  1  0
 22 52  1  0
 23 53  1  0
 24 54  1  0
 25 55  1  0
 27 56  1  0
 29 57  1  0
 33 58  1  0
 36 59  1  0
 36 60  1  0
M  CHG  1   5  -1
M  END
>  <EmbedRMS>  (37) 
0.08865194686702257

$$$$

     RDKit          3D

 60 63  0  0  0  0  0  0  0  0999 V2000
   10.2881   43.7718   33.8023 C   0  0  0  0  0  0  0  0  0  0  0  0
   11.4130   43.5865   34.3534 O   0  0  0  0  0  0  0  0  0  0  0  0
    9.3635   42.7342   33.7119 O   0  0  0  0  0  0  0  0  0  0  0  0
    9.8853   41.2345   34.2862 P   0  0  0  0  0  5  0  0  0  0  0  0
   10.3675   41.4662   35.8764 O   0  0  0  0  0  1  0  0  0  0  0  0
    9.9688   45.1018   33.2143 C   0  0  1  0  0  0  0  0  0  0  0  0
   11.0576   46.0377   33.5062 N   0  0  0  0  0  0  0  0  0  0  0  0
    9.7783   44.9519   31.6905 C   0  0  0  0  0  0  0  0  0  0  0  0
    9.2578   46.2182   31.0588 C   0  0  0  0  0  0  0  0  0  0  0  0
   10.1243   47.0781   30.3658 C   0  0  0  0  0  0  0  0  0  0  0  0
    7.9033   46.5630   31.1831 C   0  0  0  0  0  0  0  0  0  0  0  0
    9.6417   48.2613   29.7987 C   0  0  0  0  0  0  0  0  0  0  0  0
    7.4213   47.7458   30.6156 C   0  0  0  0  0  0  0  0  0  0  0  0
    8.2813   48.6036   29.9202 C   0  0  0  0  0  0  0  0  0  0  0  0
    7.7488   49.7789   29.3698 O   0  0  0  0  0  0  0  0  0  0  0  0
    8.5058   50.7397   28.6410 C   0  0  0  0  0  0  0  0  0  0  0  0
    8.8083   40.1912   34.2087 O   0  0  0  0  0  0  0  0  0  0  0  0
   11.2378   40.7933   33.3683 O   0  0  0  0  0  0  0  0  0  0  0  0
   10.9177   40.6907   31.9950 C   0  0  0  0  0  0  0  0  0  0  0  0
   11.5164   39.3809   31.4402 C   0  0  0  0  0  0  0  0  0  0  0  0
   12.7472   39.0869   32.0739 O   0  0  0  0  0  0  0  0  0  0  0  0
   10.6028   38.1895   31.6667 C   0  0  0  0  0  0  0  0  0  0  0  0
   12.9333   37.6803   32.0281 C   0  0  0  0  0  0  0  0  0  0  0  0
    9.6395   38.0779   30.6455 O   0  0  0  0  0  0  0  0  0  0  0  0
   11.5738   37.0159   31.7058 C   0  0  0  0  0  0  0  0  0  0  0  0
   13.4903   37.2181   33.3231 N   0  0  0  0  0  0  0  0  0  0  0  0
   11.6211   36.3379   30.4696 O   0  0  0  0  0  0  0  0  0  0  0  0
   14.4760   36.3275   33.5724 C   0  0  0  0  0  0  0  0  0  0  0  0
   13.1178   37.6318   34.5684 C   0  0  0  0  0  0  0  0  0  0  0  0
   15.2062   35.6140   32.6736 N   0  0  0  0  0  0  0  0  0  0  0  0
   14.6733   36.2278   34.9179 C   0  0  0  0  0  0  0  0  0  0  0  0
   13.8225   37.0459   35.5779 N   0  0  0  0  0  0  0  0  0  0  0  0
   16.1635   34.7595   33.1545 C   0  0  0  0  0  0  0  0  0  0  0  0
   15.6515   35.3494   35.4128 C   0  0  0  0  0  0  0  0  0  0  0  0
   16.3790   34.6312   34.5040 N   0  0  0  0  0  0  0  0  0  0  0  0
   15.9001   35.1936   36.8087 N   0  0  0  0  0  0  0  0  0  0  0  0
    9.0246   45.4685   33.6769 H   0  0  0  0  0  0  0  0  0  0  0  0
   11.1211   46.1572   34.5442 H   0  0  0  0  0  0  0  0  0  0  0  0
   10.7938   46.9819   33.1437 H   0  0  0  0  0  0  0  0  0  0  0  0
   10.7417   44.6513   31.2211 H   0  0  0  0  0  0  0  0  0  0  0  0
    9.0520   44.1358   31.4790 H   0  0  0  0  0  0  0  0  0  0  0  0
   11.1751   46.8349   30.2682 H   0  0  0  0  0  0  0  0  0  0  0  0
    7.2214   45.9157   31.7208 H   0  0  0  0  0  0  0  0  0  0  0  0
   10.3339   48.9028   29.2707 H   0  0  0  0  0  0  0  0  0  0  0  0
    6.3735   47.9987   30.7182 H   0  0  0  0  0  0  0  0  0  0  0  0
    9.3082   51.1605   29.2832 H   0  0  0  0  0  0  0  0  0  0  0  0
    8.9466   50.2715   27.7356 H   0  0  0  0  0  0  0  0  0  0  0  0
    7.8355   51.5646   28.3238 H   0  0  0  0  0  0  0  0  0  0  0  0
   11.3976   41.5453   31.4718 H   0  0  0  0  0  0  0  0  0  0  0  0
    9.8296   40.7403   31.7562 H   0  0  0  0  0  0  0  0  0  0  0  0
   11.6977   39.5052   30.3476 H   0  0  0  0  0  0  0  0  0  0  0  0
   10.1084   38.2634   32.6648 H   0  0  0  0  0  0  0  0  0  0  0  0
   13.6653   37.4552   31.2207 H   0  0  0  0  0  0  0  0  0  0  0  0
    8.8967   38.6908   30.8844 H   0  0  0  0  0  0  0  0  0  0  0  0
   11.2845   36.3065   32.5176 H   0  0  0  0  0  0  0  0  0  0  0  0
   10.8523   35.7098   30.4591 H   0  0  0  0  0  0  0  0  0  0  0  0
   12.3353   38.3589   34.7441 H   0  0  0  0  0  0  0  0  0  0  0  0
   16.7569   34.1789   32.4618 H   0  0  0  0  0  0  0  0  0  0  0  0
   15.3529   35.7359   37.5136 H   0  0  0  0  0  0  0  0  0  0  0  0
   16.6360   34.5317   37.1413 H   0  0  0  0  0  0  0  0  0  0  0  0
  1  2  2  0
  1  3  1  0
  3  4  1  0
  4  5  1  0
  6  1  1  0
  7  6  1  0
  6  8  1  0
  8  9  1  0
  9 10  2  0
 11  9  1  0
 10 12  1  0
 13 11  2  0
 12 14  2  0
 14 13  1  0
 14 15  1  0
 15 16  1  0
  4 17  2  0
  4 18  1  0
 19 18  1  0
 19 20  1  0
 20 21  1  0
 20 22  1  0
 21 23  1  0
 22 24  1  0
 22 25  1  0
 25 23  1  0
 23 26  1  0
 25 27  1  0
 28 26  1  0
 29 26  1  0
 30 28  2  0
 28 31  1  0
 32 29  2  0
 33 30  1  0
 31 34  2  0
 31 32  1  0
 35 33  2  0
 35 34  1  0
 34 36  1  0
  6 37  1  1
  7 38  1  0
  7 39  1  0
  8 40  1  0
  8 41  1  0
 10 42  1  0
 11 43  1  0
 12 44  1  0
 13 45  1  0
 16 46  1  0
 16 47  1  0
 16 48  1  0
 19 49  1  0
 19 50  1  0
 20 51  1  0
 22 52  1  0
 23 53  1  0
 24 54  1  0
 25 55  1  0
 27 56  1  0
 29 57  1  0
 33 58  1  0
 36 59  1  0
 36 60  1  0
M  CHG  1   5  -1
M  END
>  <EmbedRMS>  (38) 
0.0893738617961142

$$$$

     RDKit          3D

 60 63  0  0  0  0  0  0  0  0999 V2000
   10.2880   43.7719   33.8023 C   0  0  0  0  0  0  0  0  0  0  0  0
   11.4129   43.5866   34.3533 O   0  0  0  0  0  0  0  0  0  0  0  0
    9.3633   42.7344   33.7121 O   0  0  0  0  0  0  0  0  0  0  0  0
    9.8852   41.2346   34.2857 P   0  0  0  0  0  5  0  0  0  0  0  0
   10.3686   41.4661   35.8757 O   0  0  0  0  0  1  0  0  0  0  0  0
    9.9688   45.1018   33.2142 C   0  0  1  0  0  0  0  0  0  0  0  0
   11.0575   46.0377   33.5062 N   0  0  0  0  0  0  0  0  0  0  0  0
    9.7787   44.9517   31.6903 C   0  0  0  0  0  0  0  0  0  0  0  0
    9.2559   46.2171   31.0586 C   0  0  0  0  0  0  0  0  0  0  0  0
   10.1206   47.0777   30.3646 C   0  0  0  0  0  0  0  0  0  0  0  0
    7.9008   46.5597   31.1832 C   0  0  0  0  0  0  0  0  0  0  0  0
    9.6342   48.2589   29.7973 C   0  0  0  0  0  0  0  0  0  0  0  0
    7.4147   47.7411   30.6154 C   0  0  0  0  0  0  0  0  0  0  0  0
    8.2823   48.6015   29.9156 C   0  0  0  0  0  0  0  0  0  0  0  0
    7.8439   49.7977   29.3285 O   0  0  0  0  0  0  0  0  0  0  0  0
    6.5010   50.2690   29.3714 C   0  0  0  0  0  0  0  0  0  0  0  0
    8.8079   40.1915   34.2093 O   0  0  0  0  0  0  0  0  0  0  0  0
   11.2365   40.7937   33.3657 O   0  0  0  0  0  0  0  0  0  0  0  0
   10.9124   40.6862   31.9933 C   0  0  0  0  0  0  0  0  0  0  0  0
   11.5158   39.3782   31.4399 C   0  0  0  0  0  0  0  0  0  0  0  0
   12.7465   39.0863   32.0746 O   0  0  0  0  0  0  0  0  0  0  0  0
   10.6043   38.1871   31.6670 C   0  0  0  0  0  0  0  0  0  0  0  0
   12.9343   37.6798   32.0284 C   0  0  0  0  0  0  0  0  0  0  0  0
    9.6377   38.0920   30.6487 O   0  0  0  0  0  0  0  0  0  0  0  0
   11.5760   37.0134   31.7057 C   0  0  0  0  0  0  0  0  0  0  0  0
   13.4909   37.2180   33.3234 N   0  0  0  0  0  0  0  0  0  0  0  0
   11.6234   36.3375   30.4685 O   0  0  0  0  0  0  0  0  0  0  0  0
   14.4764   36.3273   33.5727 C   0  0  0  0  0  0  0  0  0  0  0  0
   13.1182   37.6317   34.5686 C   0  0  0  0  0  0  0  0  0  0  0  0
   15.2065   35.6139   32.6738 N   0  0  0  0  0  0  0  0  0  0  0  0
   14.6735   36.2276   34.9181 C   0  0  0  0  0  0  0  0  0  0  0  0
   13.8227   37.0458   35.5781 N   0  0  0  0  0  0  0  0  0  0  0  0
   16.1637   34.7594   33.1547 C   0  0  0  0  0  0  0  0  0  0  0  0
   15.6516   35.3493   35.4130 C   0  0  0  0  0  0  0  0  0  0  0  0
   16.3792   34.6310   34.5042 N   0  0  0  0  0  0  0  0  0  0  0  0
   15.9002   35.1934   36.8089 N   0  0  0  0  0  0  0  0  0  0  0  0
    9.0245   45.4685   33.6765 H   0  0  0  0  0  0  0  0  0  0  0  0
   10.7940   46.9817   33.1428 H   0  0  0  0  0  0  0  0  0  0  0  0
   11.1203   46.1578   34.5441 H   0  0  0  0  0  0  0  0  0  0  0  0
    9.0537   44.1344   31.4786 H   0  0  0  0  0  0  0  0  0  0  0  0
   10.7426   44.6527   31.2210 H   0  0  0  0  0  0  0  0  0  0  0  0
   11.1719   46.8371   30.2662 H   0  0  0  0  0  0  0  0  0  0  0  0
    7.2209   45.9110   31.7219 H   0  0  0  0  0  0  0  0  0  0  0  0
   10.3121   48.9135   29.2643 H   0  0  0  0  0  0  0  0  0  0  0  0
    6.3652   47.9765   30.7276 H   0  0  0  0  0  0  0  0  0  0  0  0
    6.1868   50.4314   30.4241 H   0  0  0  0  0  0  0  0  0  0  0  0
    5.8243   49.5394   28.8784 H   0  0  0  0  0  0  0  0  0  0  0  0
    6.4381   51.2345   28.8290 H   0  0  0  0  0  0  0  0  0  0  0  0
   11.3834   41.5432   31.4658 H   0  0  0  0  0  0  0  0  0  0  0  0
    9.8221   40.7217   31.7582 H   0  0  0  0  0  0  0  0  0  0  0  0
   11.6981   39.5022   30.3473 H   0  0  0  0  0  0  0  0  0  0  0  0
   10.1090   38.2773   32.6628 H   0  0  0  0  0  0  0  0  0  0  0  0
   13.6670   37.4557   31.2213 H   0  0  0  0  0  0  0  0  0  0  0  0
    8.9778   37.4159   30.9531 H   0  0  0  0  0  0  0  0  0  0  0  0
   11.2860   36.3046   32.5178 H   0  0  0  0  0  0  0  0  0  0  0  0
   10.8690   35.6922   30.4658 H   0  0  0  0  0  0  0  0  0  0  0  0
   12.3356   38.3589   34.7441 H   0  0  0  0  0  0  0  0  0  0  0  0
   16.7571   34.1787   32.4619 H   0  0  0  0  0  0  0  0  0  0  0  0
   16.6361   34.5315   37.1414 H   0  0  0  0  0  0  0  0  0  0  0  0
   15.3530   35.7357   37.5137 H   0  0  0  0  0  0  0  0  0  0  0  0
  1  2  2  0
  1  3  1  0
  3  4  1  0
  4  5  1  0
  6  1  1  0
  7  6  1  0
  6  8  1  0
  8  9  1  0
  9 10  2  0
 11  9  1  0
 10 12  1  0
 13 11  2  0
 12 14  2  0
 14 13  1  0
 14 15  1  0
 15 16  1  0
  4 17  2  0
  4 18  1  0
 19 18  1  0
 19 20  1  0
 20 21  1  0
 20 22  1  0
 21 23  1  0
 22 24  1  0
 22 25  1  0
 25 23  1  0
 23 26  1  0
 25 27  1  0
 28 26  1  0
 29 26  1  0
 30 28  2  0
 28 31  1  0
 32 29  2  0
 33 30  1  0
 31 34  2  0
 31 32  1  0
 35 33  2  0
 35 34  1  0
 34 36  1  0
  6 37  1  1
  7 38  1  0
  7 39  1  0
  8 40  1  0
  8 41  1  0
 10 42  1  0
 11 43  1  0
 12 44  1  0
 13 45  1  0
 16 46  1  0
 16 47  1  0
 16 48  1  0
 19 49  1  0
 19 50  1  0
 20 51  1  0
 22 52  1  0
 23 53  1  0
 24 54  1  0
 25 55  1  0
 27 56  1  0
 29 57  1  0
 33 58  1  0
 36 59  1  0
 36 60  1  0
M  CHG  1   5  -1
M  END
>  <EmbedRMS>  (39) 
0.08894085301672457

$$$$

     RDKit          3D

 60 63  0  0  0  0  0  0  0  0999 V2000
   10.2869   43.7693   33.7896 C   0  0  0  0  0  0  0  0  0  0  0  0
   11.4140   43.5804   34.3355 O   0  0  0  0  0  0  0  0  0  0  0  0
    9.3643   42.7311   33.6951 O   0  0  0  0  0  0  0  0  0  0  0  0
    9.8819   41.2340   34.2835 P   0  0  0  0  0  5  0  0  0  0  0  0
   10.3610   41.4726   35.8741 O   0  0  0  0  0  1  0  0  0  0  0  0
    9.9353   45.1311   33.2965 C   0  0  1  0  0  0  0  0  0  0  0  0
   11.0786   46.0306   33.4601 N   0  0  0  0  0  0  0  0  0  0  0  0
    9.4087   45.1329   31.8408 C   0  0  0  0  0  0  0  0  0  0  0  0
   10.2581   44.3680   30.8494 C   0  0  0  0  0  0  0  0  0  0  0  0
   11.5799   44.7563   30.5773 C   0  0  0  0  0  0  0  0  0  0  0  0
    9.6978   43.3036   30.1227 C   0  0  0  0  0  0  0  0  0  0  0  0
   12.3394   44.0640   29.6295 C   0  0  0  0  0  0  0  0  0  0  0  0
   10.4533   42.6211   29.1648 C   0  0  0  0  0  0  0  0  0  0  0  0
   11.7889   42.9904   28.9208 C   0  0  0  0  0  0  0  0  0  0  0  0
   12.5964   42.3205   27.9898 O   0  0  0  0  0  0  0  0  0  0  0  0
   12.1741   41.1991   27.2206 C   0  0  0  0  0  0  0  0  0  0  0  0
    8.8043   40.1915   34.2090 O   0  0  0  0  0  0  0  0  0  0  0  0
   11.2365   40.7793   33.3782 O   0  0  0  0  0  0  0  0  0  0  0  0
   10.9291   40.6902   32.0027 C   0  0  0  0  0  0  0  0  0  0  0  0
   11.5283   39.3882   31.4387 C   0  0  0  0  0  0  0  0  0  0  0  0
   12.7523   39.0862   32.0790 O   0  0  0  0  0  0  0  0  0  0  0  0
   10.6107   38.1934   31.6476 C   0  0  0  0  0  0  0  0  0  0  0  0
   12.9352   37.6792   32.0288 C   0  0  0  0  0  0  0  0  0  0  0  0
    9.6140   38.0912   30.6543 O   0  0  0  0  0  0  0  0  0  0  0  0
   11.5759   37.0142   31.7026 C   0  0  0  0  0  0  0  0  0  0  0  0
   13.4899   37.2154   33.3235 N   0  0  0  0  0  0  0  0  0  0  0  0
   11.6304   36.3241   30.4740 O   0  0  0  0  0  0  0  0  0  0  0  0
   14.4763   36.3261   33.5728 C   0  0  0  0  0  0  0  0  0  0  0  0
   13.1178   37.6302   34.5686 C   0  0  0  0  0  0  0  0  0  0  0  0
   15.2067   35.6131   32.6739 N   0  0  0  0  0  0  0  0  0  0  0  0
   14.6737   36.2271   34.9182 C   0  0  0  0  0  0  0  0  0  0  0  0
   13.8228   37.0452   35.5782 N   0  0  0  0  0  0  0  0  0  0  0  0
   16.1642   34.7591   33.1548 C   0  0  0  0  0  0  0  0  0  0  0  0
   15.6520   35.3491   35.4132 C   0  0  0  0  0  0  0  0  0  0  0  0
   16.3797   34.6308   34.5043 N   0  0  0  0  0  0  0  0  0  0  0  0
   15.9005   35.1933   36.8090 N   0  0  0  0  0  0  0  0  0  0  0  0
    9.1084   45.5052   33.9421 H   0  0  0  0  0  0  0  0  0  0  0  0
   10.8077   46.9806   33.1162 H   0  0  0  0  0  0  0  0  0  0  0  0
   11.2658   46.1504   34.4831 H   0  0  0  0  0  0  0  0  0  0  0  0
    9.3032   46.1798   31.4829 H   0  0  0  0  0  0  0  0  0  0  0  0
    8.3777   44.7150   31.8536 H   0  0  0  0  0  0  0  0  0  0  0  0
   12.0246   45.5993   31.0877 H   0  0  0  0  0  0  0  0  0  0  0  0
    8.6744   42.9959   30.2981 H   0  0  0  0  0  0  0  0  0  0  0  0
   13.3613   44.3674   29.4401 H   0  0  0  0  0  0  0  0  0  0  0  0
    9.9944   41.7996   28.6319 H   0  0  0  0  0  0  0  0  0  0  0  0
   11.3190   41.4819   26.5711 H   0  0  0  0  0  0  0  0  0  0  0  0
   13.0133   40.8641   26.5773 H   0  0  0  0  0  0  0  0  0  0  0  0
   11.8844   40.3628   27.8912 H   0  0  0  0  0  0  0  0  0  0  0  0
   11.4325   41.5420   31.5038 H   0  0  0  0  0  0  0  0  0  0  0  0
    9.8436   40.7439   31.7500 H   0  0  0  0  0  0  0  0  0  0  0  0
   11.7285   39.5331   30.3527 H   0  0  0  0  0  0  0  0  0  0  0  0
   10.1122   38.2759   32.6392 H   0  0  0  0  0  0  0  0  0  0  0  0
   13.6685   37.4557   31.2221 H   0  0  0  0  0  0  0  0  0  0  0  0
   10.0531   38.1204   29.7647 H   0  0  0  0  0  0  0  0  0  0  0  0
   11.2786   36.3140   32.5194 H   0  0  0  0  0  0  0  0  0  0  0  0
   10.8589   35.6993   30.4637 H   0  0  0  0  0  0  0  0  0  0  0  0
   12.3355   38.3576   34.7439 H   0  0  0  0  0  0  0  0  0  0  0  0
   16.7578   34.1786   32.4622 H   0  0  0  0  0  0  0  0  0  0  0  0
   16.6364   34.5316   37.1417 H   0  0  0  0  0  0  0  0  0  0  0  0
   15.3531   35.7356   37.5138 H   0  0  0  0  0  0  0  0  0  0  0  0
  1  2  2  0
  1  3  1  0
  3  4  1  0
  4  5  1  0
  6  1  1  0
  7  6  1  0
  6  8  1  0
  8  9  1  0
  9 10  2  0
 11  9  1  0
 10 12  1  0
 13 11  2  0
 12 14  2  0
 14 13  1  0
 14 15  1  0
 15 16  1  0
  4 17  2  0
  4 18  1  0
 19 18  1  0
 19 20  1  0
 20 21  1  0
 20 22  1  0
 21 23  1  0
 22 24  1  0
 22 25  1  0
 25 23  1  0
 23 26  1  0
 25 27  1  0
 28 26  1  0
 29 26  1  0
 30 28  2  0
 28 31  1  0
 32 29  2  0
 33 30  1  0
 31 34  2  0
 31 32  1  0
 35 33  2  0
 35 34  1  0
 34 36  1  0
  6 37  1  1
  7 38  1  0
  7 39  1  0
  8 40  1  0
  8 41  1  0
 10 42  1  0
 11 43  1  0
 12 44  1  0
 13 45  1  0
 16 46  1  0
 16 47  1  0
 16 48  1  0
 19 49  1  0
 19 50  1  0
 20 51  1  0
 22 52  1  0
 23 53  1  0
 24 54  1  0
 25 55  1  0
 27 56  1  0
 29 57  1  0
 33 58  1  0
 36 59  1  0
 36 60  1  0
M  CHG  1   5  -1
M  END
>  <EmbedRMS>  (40) 
0.0907596732136916

$$$$

     RDKit          3D

 60 63  0  0  0  0  0  0  0  0999 V2000
   10.2940   43.7721   33.7964 C   0  0  0  0  0  0  0  0  0  0  0  0
   11.4139   43.5897   34.3581 O   0  0  0  0  0  0  0  0  0  0  0  0
    9.3669   42.7361   33.7090 O   0  0  0  0  0  0  0  0  0  0  0  0
    9.8866   41.2362   34.2849 P   0  0  0  0  0  5  0  0  0  0  0  0
   10.3701   41.4675   35.8748 O   0  0  0  0  0  1  0  0  0  0  0  0
    9.9764   45.1031   33.2094 C   0  0  1  0  0  0  0  0  0  0  0  0
   11.0440   46.0545   33.5253 N   0  0  0  0  0  0  0  0  0  0  0  0
    9.7511   45.0004   31.6770 C   0  0  0  0  0  0  0  0  0  0  0  0
   10.9978   45.2138   30.8399 C   0  0  0  0  0  0  0  0  0  0  0  0
   11.0156   46.2075   29.8465 C   0  0  0  0  0  0  0  0  0  0  0  0
   12.1368   44.4112   31.0170 C   0  0  0  0  0  0  0  0  0  0  0  0
   12.1512   46.3983   29.0543 C   0  0  0  0  0  0  0  0  0  0  0  0
   13.2721   44.6022   30.2246 C   0  0  0  0  0  0  0  0  0  0  0  0
   13.2863   45.6011   29.2338 C   0  0  0  0  0  0  0  0  0  0  0  0
   14.4003   45.8316   28.4129 O   0  0  0  0  0  0  0  0  0  0  0  0
   15.6178   45.0968   28.4856 C   0  0  0  0  0  0  0  0  0  0  0  0
    8.8088   40.1934   34.2089 O   0  0  0  0  0  0  0  0  0  0  0  0
   11.2365   40.7959   33.3631 O   0  0  0  0  0  0  0  0  0  0  0  0
   10.9058   40.6806   31.9928 C   0  0  0  0  0  0  0  0  0  0  0  0
   11.5229   39.3831   31.4369 C   0  0  0  0  0  0  0  0  0  0  0  0
   12.7463   39.0887   32.0832 O   0  0  0  0  0  0  0  0  0  0  0  0
   10.6114   38.1851   31.6464 C   0  0  0  0  0  0  0  0  0  0  0  0
   12.9371   37.6825   32.0304 C   0  0  0  0  0  0  0  0  0  0  0  0
    9.6141   38.0802   30.6540 O   0  0  0  0  0  0  0  0  0  0  0  0
   11.5800   37.0113   31.7010 C   0  0  0  0  0  0  0  0  0  0  0  0
   13.4907   37.2169   33.3244 N   0  0  0  0  0  0  0  0  0  0  0  0
   11.6231   36.3241   30.4717 O   0  0  0  0  0  0  0  0  0  0  0  0
   14.4764   36.3266   33.5732 C   0  0  0  0  0  0  0  0  0  0  0  0
   13.1182   37.6308   34.5695 C   0  0  0  0  0  0  0  0  0  0  0  0
   15.2065   35.6137   32.6740 N   0  0  0  0  0  0  0  0  0  0  0  0
   14.6736   36.2270   34.9185 C   0  0  0  0  0  0  0  0  0  0  0  0
   13.8229   37.0450   35.5788 N   0  0  0  0  0  0  0  0  0  0  0  0
   16.1639   34.7593   33.1547 C   0  0  0  0  0  0  0  0  0  0  0  0
   15.6519   35.3489   35.4132 C   0  0  0  0  0  0  0  0  0  0  0  0
   16.3795   34.6308   34.5042 N   0  0  0  0  0  0  0  0  0  0  0  0
   15.9006   35.1930   36.8090 N   0  0  0  0  0  0  0  0  0  0  0  0
    9.0285   45.4511   33.6795 H   0  0  0  0  0  0  0  0  0  0  0  0
   10.7871   46.9814   33.1135 H   0  0  0  0  0  0  0  0  0  0  0  0
   11.0593   46.2028   34.5613 H   0  0  0  0  0  0  0  0  0  0  0  0
    8.9884   45.7619   31.4018 H   0  0  0  0  0  0  0  0  0  0  0  0
    9.3040   44.0188   31.4065 H   0  0  0  0  0  0  0  0  0  0  0  0
   10.1502   46.8372   29.6817 H   0  0  0  0  0  0  0  0  0  0  0  0
   12.1582   43.6466   31.7773 H   0  0  0  0  0  0  0  0  0  0  0  0
   12.1484   47.1696   28.2945 H   0  0  0  0  0  0  0  0  0  0  0  0
   14.1329   43.9692   30.3918 H   0  0  0  0  0  0  0  0  0  0  0  0
   15.4284   44.0226   28.2770 H   0  0  0  0  0  0  0  0  0  0  0  0
   16.0765   45.2164   29.4898 H   0  0  0  0  0  0  0  0  0  0  0  0
   16.3231   45.4876   27.7240 H   0  0  0  0  0  0  0  0  0  0  0  0
   11.3606   41.5351   31.4551 H   0  0  0  0  0  0  0  0  0  0  0  0
    9.8139   40.7026   31.7633 H   0  0  0  0  0  0  0  0  0  0  0  0
   11.7266   39.5240   30.3507 H   0  0  0  0  0  0  0  0  0  0  0  0
   10.1131   38.2662   32.6385 H   0  0  0  0  0  0  0  0  0  0  0  0
   13.6729   37.4652   31.2244 H   0  0  0  0  0  0  0  0  0  0  0  0
   10.0525   38.1037   29.7639 H   0  0  0  0  0  0  0  0  0  0  0  0
   11.2664   36.3100   32.5098 H   0  0  0  0  0  0  0  0  0  0  0  0
   12.1583   35.5031   30.6297 H   0  0  0  0  0  0  0  0  0  0  0  0
   12.3362   38.3586   34.7452 H   0  0  0  0  0  0  0  0  0  0  0  0
   16.7573   34.1788   32.4619 H   0  0  0  0  0  0  0  0  0  0  0  0
   15.3534   35.7353   37.5139 H   0  0  0  0  0  0  0  0  0  0  0  0
   16.6366   34.5313   37.1415 H   0  0  0  0  0  0  0  0  0  0  0  0
  1  2  2  0
  1  3  1  0
  3  4  1  0
  4  5  1  0
  6  1  1  0
  7  6  1  0
  6  8  1  0
  8  9  1  0
  9 10  2  0
 11  9  1  0
 10 12  1  0
 13 11  2  0
 12 14  2  0
 14 13  1  0
 14 15  1  0
 15 16  1  0
  4 17  2  0
  4 18  1  0
 19 18  1  0
 19 20  1  0
 20 21  1  0
 20 22  1  0
 21 23  1  0
 22 24  1  0
 22 25  1  0
 25 23  1  0
 23 26  1  0
 25 27  1  0
 28 26  1  0
 29 26  1  0
 30 28  2  0
 28 31  1  0
 32 29  2  0
 33 30  1  0
 31 34  2  0
 31 32  1  0
 35 33  2  0
 35 34  1  0
 34 36  1  0
  6 37  1  1
  7 38  1  0
  7 39  1  0
  8 40  1  0
  8 41  1  0
 10 42  1  0
 11 43  1  0
 12 44  1  0
 13 45  1  0
 16 46  1  0
 16 47  1  0
 16 48  1  0
 19 49  1  0
 19 50  1  0
 20 51  1  0
 22 52  1  0
 23 53  1  0
 24 54  1  0
 25 55  1  0
 27 56  1  0
 29 57  1  0
 33 58  1  0
 36 59  1  0
 36 60  1  0
M  CHG  1   5  -1
M  END
>  <EmbedRMS>  (41) 
0.08869708408260707

$$$$

     RDKit          3D

 60 63  0  0  0  0  0  0  0  0999 V2000
   10.2876   43.7724   33.7998 C   0  0  0  0  0  0  0  0  0  0  0  0
   11.4101   43.5904   34.3569 O   0  0  0  0  0  0  0  0  0  0  0  0
    9.3641   42.7338   33.7092 O   0  0  0  0  0  0  0  0  0  0  0  0
    9.8853   41.2350   34.2859 P   0  0  0  0  0  5  0  0  0  0  0  0
   10.3679   41.4675   35.8759 O   0  0  0  0  0  1  0  0  0  0  0  0
    9.9622   45.1044   33.2249 C   0  0  1  0  0  0  0  0  0  0  0  0
   11.0639   46.0309   33.4992 N   0  0  0  0  0  0  0  0  0  0  0  0
    9.6870   44.9766   31.7102 C   0  0  0  0  0  0  0  0  0  0  0  0
    9.2398   46.2851   31.1107 C   0  0  0  0  0  0  0  0  0  0  0  0
    7.9152   46.7192   31.2726 C   0  0  0  0  0  0  0  0  0  0  0  0
   10.1498   47.0997   30.4194 C   0  0  0  0  0  0  0  0  0  0  0  0
    7.5024   47.9442   30.7401 C   0  0  0  0  0  0  0  0  0  0  0  0
    9.7367   48.3244   29.8875 C   0  0  0  0  0  0  0  0  0  0  0  0
    8.4146   48.7575   30.0407 C   0  0  0  0  0  0  0  0  0  0  0  0
    8.0500   49.9944   29.4884 O   0  0  0  0  0  0  0  0  0  0  0  0
    6.7446   50.5572   29.5694 C   0  0  0  0  0  0  0  0  0  0  0  0
    8.8082   40.1917   34.2095 O   0  0  0  0  0  0  0  0  0  0  0  0
   11.2367   40.7929   33.3676 O   0  0  0  0  0  0  0  0  0  0  0  0
   10.9139   40.6893   31.9949 C   0  0  0  0  0  0  0  0  0  0  0  0
   11.5254   39.3878   31.4369 C   0  0  0  0  0  0  0  0  0  0  0  0
   12.7485   39.0900   32.0824 O   0  0  0  0  0  0  0  0  0  0  0  0
   10.6120   38.1897   31.6461 C   0  0  0  0  0  0  0  0  0  0  0  0
   12.9371   37.6833   32.0302 C   0  0  0  0  0  0  0  0  0  0  0  0
    9.6149   38.0841   30.6537 O   0  0  0  0  0  0  0  0  0  0  0  0
   11.5792   37.0141   31.7014 C   0  0  0  0  0  0  0  0  0  0  0  0
   13.4906   37.2172   33.3242 N   0  0  0  0  0  0  0  0  0  0  0  0
   11.6216   36.3256   30.4726 O   0  0  0  0  0  0  0  0  0  0  0  0
   14.4763   36.3268   33.5730 C   0  0  0  0  0  0  0  0  0  0  0  0
   13.1181   37.6310   34.5695 C   0  0  0  0  0  0  0  0  0  0  0  0
   15.2065   35.6138   32.6739 N   0  0  0  0  0  0  0  0  0  0  0  0
   14.6735   36.2270   34.9184 C   0  0  0  0  0  0  0  0  0  0  0  0
   13.8229   37.0451   35.5787 N   0  0  0  0  0  0  0  0  0  0  0  0
   16.1638   34.7594   33.1546 C   0  0  0  0  0  0  0  0  0  0  0  0
   15.6518   35.3489   35.4131 C   0  0  0  0  0  0  0  0  0  0  0  0
   16.3794   34.6308   34.5041 N   0  0  0  0  0  0  0  0  0  0  0  0
   15.9006   35.1931   36.8089 N   0  0  0  0  0  0  0  0  0  0  0  0
    9.0444   45.4725   33.7351 H   0  0  0  0  0  0  0  0  0  0  0  0
   10.7422   47.0072   33.3071 H   0  0  0  0  0  0  0  0  0  0  0  0
   11.8656   45.8305   32.8566 H   0  0  0  0  0  0  0  0  0  0  0  0
   10.5964   44.6024   31.1890 H   0  0  0  0  0  0  0  0  0  0  0  0
    8.8895   44.2201   31.5383 H   0  0  0  0  0  0  0  0  0  0  0  0
    7.2026   46.1084   31.8133 H   0  0  0  0  0  0  0  0  0  0  0  0
   11.1798   46.7891   30.2955 H   0  0  0  0  0  0  0  0  0  0  0  0
    6.4746   48.2499   30.8797 H   0  0  0  0  0  0  0  0  0  0  0  0
   10.4487   48.9424   29.3552 H   0  0  0  0  0  0  0  0  0  0  0  0
    6.7392   51.5367   29.0489 H   0  0  0  0  0  0  0  0  0  0  0  0
    6.0089   49.8879   29.0753 H   0  0  0  0  0  0  0  0  0  0  0  0
    6.4630   50.7173   30.6316 H   0  0  0  0  0  0  0  0  0  0  0  0
    9.8235   40.7186   31.7593 H   0  0  0  0  0  0  0  0  0  0  0  0
   11.3795   41.5518   31.4715 H   0  0  0  0  0  0  0  0  0  0  0  0
   11.7286   39.5295   30.3508 H   0  0  0  0  0  0  0  0  0  0  0  0
   10.1135   38.2721   32.6379 H   0  0  0  0  0  0  0  0  0  0  0  0
   13.6723   37.4646   31.2240 H   0  0  0  0  0  0  0  0  0  0  0  0
   10.0536   38.1091   29.7638 H   0  0  0  0  0  0  0  0  0  0  0  0
   11.2645   36.3139   32.5108 H   0  0  0  0  0  0  0  0  0  0  0  0
   12.1552   35.5037   30.6317 H   0  0  0  0  0  0  0  0  0  0  0  0
   12.3362   38.3588   34.7452 H   0  0  0  0  0  0  0  0  0  0  0  0
   16.7572   34.1789   32.4618 H   0  0  0  0  0  0  0  0  0  0  0  0
   16.6366   34.5314   37.1414 H   0  0  0  0  0  0  0  0  0  0  0  0
   15.3533   35.7353   37.5139 H   0  0  0  0  0  0  0  0  0  0  0  0
  1  2  2  0
  1  3  1  0
  3  4  1  0
  4  5  1  0
  6  1  1  0
  7  6  1  0
  6  8  1  0
  8  9  1  0
  9 10  2  0
 11  9  1  0
 10 12  1  0
 13 11  2  0
 12 14  2  0
 14 13  1  0
 14 15  1  0
 15 16  1  0
  4 17  2  0
  4 18  1  0
 19 18  1  0
 19 20  1  0
 20 21  1  0
 20 22  1  0
 21 23  1  0
 22 24  1  0
 22 25  1  0
 25 23  1  0
 23 26  1  0
 25 27  1  0
 28 26  1  0
 29 26  1  0
 30 28  2  0
 28 31  1  0
 32 29  2  0
 33 30  1  0
 31 34  2  0
 31 32  1  0
 35 33  2  0
 35 34  1  0
 34 36  1  0
  6 37  1  1
  7 38  1  0
  7 39  1  0
  8 40  1  0
  8 41  1  0
 10 42  1  0
 11 43  1  0
 12 44  1  0
 13 45  1  0
 16 46  1  0
 16 47  1  0
 16 48  1  0
 19 49  1  0
 19 50  1  0
 20 51  1  0
 22 52  1  0
 23 53  1  0
 24 54  1  0
 25 55  1  0
 27 56  1  0
 29 57  1  0
 33 58  1  0
 36 59  1  0
 36 60  1  0
M  CHG  1   5  -1
M  END
>  <EmbedRMS>  (42) 
0.08753482268865155

$$$$

     RDKit          3D

 60 63  0  0  0  0  0  0  0  0999 V2000
   10.2895   43.7707   33.7895 C   0  0  0  0  0  0  0  0  0  0  0  0
   11.4145   43.5857   34.3410 O   0  0  0  0  0  0  0  0  0  0  0  0
    9.3636   42.7337   33.7100 O   0  0  0  0  0  0  0  0  0  0  0  0
    9.8851   41.2348   34.2860 P   0  0  0  0  0  5  0  0  0  0  0  0
   10.3680   41.4678   35.8758 O   0  0  0  0  0  1  0  0  0  0  0  0
    9.9604   45.1139   33.2272 C   0  0  1  0  0  0  0  0  0  0  0  0
   11.0592   46.0380   33.5128 N   0  0  0  0  0  0  0  0  0  0  0  0
    9.7298   45.0503   31.6996 C   0  0  0  0  0  0  0  0  0  0  0  0
    8.5406   44.2038   31.3103 C   0  0  0  0  0  0  0  0  0  0  0  0
    7.2461   44.5578   31.7234 C   0  0  0  0  0  0  0  0  0  0  0  0
    8.7158   43.0572   30.5201 C   0  0  0  0  0  0  0  0  0  0  0  0
    6.1529   43.7549   31.3857 C   0  0  0  0  0  0  0  0  0  0  0  0
    7.6233   42.2525   30.1860 C   0  0  0  0  0  0  0  0  0  0  0  0
    6.3302   42.5945   30.6236 C   0  0  0  0  0  0  0  0  0  0  0  0
    5.2036   41.8149   30.3228 O   0  0  0  0  0  0  0  0  0  0  0  0
    5.2413   40.6053   29.5723 C   0  0  0  0  0  0  0  0  0  0  0  0
    8.8072   40.1922   34.2099 O   0  0  0  0  0  0  0  0  0  0  0  0
   11.2366   40.7907   33.3680 O   0  0  0  0  0  0  0  0  0  0  0  0
   10.9128   40.6823   31.9961 C   0  0  0  0  0  0  0  0  0  0  0  0
   11.5174   39.3771   31.4409 C   0  0  0  0  0  0  0  0  0  0  0  0
   12.7478   39.0866   32.0762 O   0  0  0  0  0  0  0  0  0  0  0  0
   10.6068   38.1848   31.6659 C   0  0  0  0  0  0  0  0  0  0  0  0
   12.9372   37.6809   32.0291 C   0  0  0  0  0  0  0  0  0  0  0  0
    9.6405   38.0890   30.6473 O   0  0  0  0  0  0  0  0  0  0  0  0
   11.5788   37.0132   31.7043 C   0  0  0  0  0  0  0  0  0  0  0  0
   13.4914   37.2179   33.3240 N   0  0  0  0  0  0  0  0  0  0  0  0
   11.6124   36.3391   30.4670 O   0  0  0  0  0  0  0  0  0  0  0  0
   14.4766   36.3271   33.5731 C   0  0  0  0  0  0  0  0  0  0  0  0
   13.1184   37.6315   34.5690 C   0  0  0  0  0  0  0  0  0  0  0  0
   15.2066   35.6138   32.6741 N   0  0  0  0  0  0  0  0  0  0  0  0
   14.6735   36.2273   34.9185 C   0  0  0  0  0  0  0  0  0  0  0  0
   13.8228   37.0455   35.5785 N   0  0  0  0  0  0  0  0  0  0  0  0
   16.1638   34.7593   33.1548 C   0  0  0  0  0  0  0  0  0  0  0  0
   15.6517   35.3490   35.4132 C   0  0  0  0  0  0  0  0  0  0  0  0
   16.3793   34.6308   34.5043 N   0  0  0  0  0  0  0  0  0  0  0  0
   15.9004   35.1932   36.8091 N   0  0  0  0  0  0  0  0  0  0  0  0
    9.0390   45.4865   33.7275 H   0  0  0  0  0  0  0  0  0  0  0  0
   11.1170   46.1737   34.5493 H   0  0  0  0  0  0  0  0  0  0  0  0
   10.8130   46.9782   33.1255 H   0  0  0  0  0  0  0  0  0  0  0  0
   10.6558   44.6775   31.2075 H   0  0  0  0  0  0  0  0  0  0  0  0
    9.5535   46.0777   31.3130 H   0  0  0  0  0  0  0  0  0  0  0  0
    7.0828   45.4518   32.3117 H   0  0  0  0  0  0  0  0  0  0  0  0
    9.7000   42.7805   30.1653 H   0  0  0  0  0  0  0  0  0  0  0  0
    5.1619   44.0342   31.7207 H   0  0  0  0  0  0  0  0  0  0  0  0
    7.7956   41.3677   29.5884 H   0  0  0  0  0  0  0  0  0  0  0  0
    5.6248   40.8027   28.5490 H   0  0  0  0  0  0  0  0  0  0  0  0
    5.8843   39.8583   30.0842 H   0  0  0  0  0  0  0  0  0  0  0  0
    4.2137   40.1953   29.4936 H   0  0  0  0  0  0  0  0  0  0  0  0
   11.3837   41.5393   31.4697 H   0  0  0  0  0  0  0  0  0  0  0  0
    9.8224   40.7088   31.7639 H   0  0  0  0  0  0  0  0  0  0  0  0
   11.6999   39.5032   30.3486 H   0  0  0  0  0  0  0  0  0  0  0  0
   10.1094   38.2740   32.6608 H   0  0  0  0  0  0  0  0  0  0  0  0
   13.6714   37.4592   31.2229 H   0  0  0  0  0  0  0  0  0  0  0  0
    8.9998   37.3883   30.9366 H   0  0  0  0  0  0  0  0  0  0  0  0
   11.2706   36.3044   32.5085 H   0  0  0  0  0  0  0  0  0  0  0  0
   12.1444   35.5139   30.6135 H   0  0  0  0  0  0  0  0  0  0  0  0
   12.3361   38.3591   34.7445 H   0  0  0  0  0  0  0  0  0  0  0  0
   16.7571   34.1787   32.4620 H   0  0  0  0  0  0  0  0  0  0  0  0
   15.3532   35.7355   37.5139 H   0  0  0  0  0  0  0  0  0  0  0  0
   16.6363   34.5314   37.1416 H   0  0  0  0  0  0  0  0  0  0  0  0
  1  2  2  0
  1  3  1  0
  3  4  1  0
  4  5  1  0
  6  1  1  0
  7  6  1  0
  6  8  1  0
  8  9  1  0
  9 10  2  0
 11  9  1  0
 10 12  1  0
 13 11  2  0
 12 14  2  0
 14 13  1  0
 14 15  1  0
 15 16  1  0
  4 17  2  0
  4 18  1  0
 19 18  1  0
 19 20  1  0
 20 21  1  0
 20 22  1  0
 21 23  1  0
 22 24  1  0
 22 25  1  0
 25 23  1  0
 23 26  1  0
 25 27  1  0
 28 26  1  0
 29 26  1  0
 30 28  2  0
 28 31  1  0
 32 29  2  0
 33 30  1  0
 31 34  2  0
 31 32  1  0
 35 33  2  0
 35 34  1  0
 34 36  1  0
  6 37  1  1
  7 38  1  0
  7 39  1  0
  8 40  1  0
  8 41  1  0
 10 42  1  0
 11 43  1  0
 12 44  1  0
 13 45  1  0
 16 46  1  0
 16 47  1  0
 16 48  1  0
 19 49  1  0
 19 50  1  0
 20 51  1  0
 22 52  1  0
 23 53  1  0
 24 54  1  0
 25 55  1  0
 27 56  1  0
 29 57  1  0
 33 58  1  0
 36 59  1  0
 36 60  1  0
M  CHG  1   5  -1
M  END
>  <EmbedRMS>  (43) 
0.08944129275354935

$$$$

     RDKit          3D

 60 63  0  0  0  0  0  0  0  0999 V2000
   10.2940   43.7722   33.7966 C   0  0  0  0  0  0  0  0  0  0  0  0
   11.4139   43.5898   34.3582 O   0  0  0  0  0  0  0  0  0  0  0  0
    9.3667   42.7363   33.7093 O   0  0  0  0  0  0  0  0  0  0  0  0
    9.8866   41.2364   34.2848 P   0  0  0  0  0  5  0  0  0  0  0  0
   10.3704   41.4674   35.8747 O   0  0  0  0  0  1  0  0  0  0  0  0
    9.9767   45.1030   33.2087 C   0  0  1  0  0  0  0  0  0  0  0  0
   11.0437   46.0546   33.5259 N   0  0  0  0  0  0  0  0  0  0  0  0
    9.7542   44.9996   31.6760 C   0  0  0  0  0  0  0  0  0  0  0  0
   11.0028   45.2121   30.8416 C   0  0  0  0  0  0  0  0  0  0  0  0
   12.1397   44.4066   31.0192 C   0  0  0  0  0  0  0  0  0  0  0  0
   11.0253   46.2087   29.8513 C   0  0  0  0  0  0  0  0  0  0  0  0
   13.2775   44.5975   30.2302 C   0  0  0  0  0  0  0  0  0  0  0  0
   12.1632   46.3994   29.0625 C   0  0  0  0  0  0  0  0  0  0  0  0
   13.2963   45.5993   29.2425 C   0  0  0  0  0  0  0  0  0  0  0  0
   14.4129   45.8301   28.4253 O   0  0  0  0  0  0  0  0  0  0  0  0
   15.6289   45.0930   28.4995 C   0  0  0  0  0  0  0  0  0  0  0  0
    8.8088   40.1935   34.2089 O   0  0  0  0  0  0  0  0  0  0  0  0
   11.2362   40.7969   33.3622 O   0  0  0  0  0  0  0  0  0  0  0  0
   10.9041   40.6785   31.9924 C   0  0  0  0  0  0  0  0  0  0  0  0
   11.5138   39.3757   31.4414 C   0  0  0  0  0  0  0  0  0  0  0  0
   12.7459   39.0880   32.0775 O   0  0  0  0  0  0  0  0  0  0  0  0
   10.6042   38.1834   31.6663 C   0  0  0  0  0  0  0  0  0  0  0  0
   12.9409   37.6826   32.0281 C   0  0  0  0  0  0  0  0  0  0  0  0
    9.6351   38.0893   30.6505 O   0  0  0  0  0  0  0  0  0  0  0  0
   11.5834   37.0157   31.6933 C   0  0  0  0  0  0  0  0  0  0  0  0
   13.4909   37.2176   33.3241 N   0  0  0  0  0  0  0  0  0  0  0  0
   11.6153   36.3169   30.4667 O   0  0  0  0  0  0  0  0  0  0  0  0
   14.4763   36.3270   33.5734 C   0  0  0  0  0  0  0  0  0  0  0  0
   13.1180   37.6316   34.5690 C   0  0  0  0  0  0  0  0  0  0  0  0
   15.2067   35.6140   32.6744 N   0  0  0  0  0  0  0  0  0  0  0  0
   14.6732   36.2272   34.9187 C   0  0  0  0  0  0  0  0  0  0  0  0
   13.8224   37.0456   35.5786 N   0  0  0  0  0  0  0  0  0  0  0  0
   16.1639   34.7595   33.1550 C   0  0  0  0  0  0  0  0  0  0  0  0
   15.6516   35.3491   35.4134 C   0  0  0  0  0  0  0  0  0  0  0  0
   16.3793   34.6310   34.5045 N   0  0  0  0  0  0  0  0  0  0  0  0
   15.9003   35.1933   36.8093 N   0  0  0  0  0  0  0  0  0  0  0  0
    9.0280   45.4509   33.6771 H   0  0  0  0  0  0  0  0  0  0  0  0
   11.0576   46.2031   34.5619 H   0  0  0  0  0  0  0  0  0  0  0  0
   10.7871   46.9814   33.1136 H   0  0  0  0  0  0  0  0  0  0  0  0
    8.9924   45.7611   31.3987 H   0  0  0  0  0  0  0  0  0  0  0  0
    9.3074   44.0180   31.4052 H   0  0  0  0  0  0  0  0  0  0  0  0
   12.1576   43.6398   31.7774 H   0  0  0  0  0  0  0  0  0  0  0  0
   10.1617   46.8409   29.6863 H   0  0  0  0  0  0  0  0  0  0  0  0
   14.1365   43.9622   30.3978 H   0  0  0  0  0  0  0  0  0  0  0  0
   12.1640   47.1730   28.3050 H   0  0  0  0  0  0  0  0  0  0  0  0
   16.0850   45.2090   29.5054 H   0  0  0  0  0  0  0  0  0  0  0  0
   16.3372   45.4848   27.7411 H   0  0  0  0  0  0  0  0  0  0  0  0
   15.4384   44.0197   28.2874 H   0  0  0  0  0  0  0  0  0  0  0  0
    9.8122   40.7059   31.7631 H   0  0  0  0  0  0  0  0  0  0  0  0
   11.3639   41.5279   31.4511 H   0  0  0  0  0  0  0  0  0  0  0  0
   11.6968   39.5016   30.3490 H   0  0  0  0  0  0  0  0  0  0  0  0
   10.1111   38.2667   32.6638 H   0  0  0  0  0  0  0  0  0  0  0  0
   13.6819   37.4648   31.2272 H   0  0  0  0  0  0  0  0  0  0  0  0
    9.0037   37.3779   30.9341 H   0  0  0  0  0  0  0  0  0  0  0  0
   11.2864   36.3007   32.4920 H   0  0  0  0  0  0  0  0  0  0  0  0
   11.8864   36.9585   29.7586 H   0  0  0  0  0  0  0  0  0  0  0  0
   12.3364   38.3599   34.7442 H   0  0  0  0  0  0  0  0  0  0  0  0
   16.7574   34.1790   32.4623 H   0  0  0  0  0  0  0  0  0  0  0  0
   16.6363   34.5316   37.1418 H   0  0  0  0  0  0  0  0  0  0  0  0
   15.3530   35.7355   37.5142 H   0  0  0  0  0  0  0  0  0  0  0  0
  1  2  2  0
  1  3  1  0
  3  4  1  0
  4  5  1  0
  6  1  1  0
  7  6  1  0
  6  8  1  0
  8  9  1  0
  9 10  2  0
 11  9  1  0
 10 12  1  0
 13 11  2  0
 12 14  2  0
 14 13  1  0
 14 15  1  0
 15 16  1  0
  4 17  2  0
  4 18  1  0
 19 18  1  0
 19 20  1  0
 20 21  1  0
 20 22  1  0
 21 23  1  0
 22 24  1  0
 22 25  1  0
 25 23  1  0
 23 26  1  0
 25 27  1  0
 28 26  1  0
 29 26  1  0
 30 28  2  0
 28 31  1  0
 32 29  2  0
 33 30  1  0
 31 34  2  0
 31 32  1  0
 35 33  2  0
 35 34  1  0
 34 36  1  0
  6 37  1  1
  7 38  1  0
  7 39  1  0
  8 40  1  0
  8 41  1  0
 10 42  1  0
 11 43  1  0
 12 44  1  0
 13 45  1  0
 16 46  1  0
 16 47  1  0
 16 48  1  0
 19 49  1  0
 19 50  1  0
 20 51  1  0
 22 52  1  0
 23 53  1  0
 24 54  1  0
 25 55  1  0
 27 56  1  0
 29 57  1  0
 33 58  1  0
 36 59  1  0
 36 60  1  0
M  CHG  1   5  -1
M  END
>  <EmbedRMS>  (44) 
0.08868107811959225

$$$$

     RDKit          3D

 60 63  0  0  0  0  0  0  0  0999 V2000
   10.2879   43.7719   33.8023 C   0  0  0  0  0  0  0  0  0  0  0  0
   11.4129   43.5865   34.3532 O   0  0  0  0  0  0  0  0  0  0  0  0
    9.3632   42.7344   33.7121 O   0  0  0  0  0  0  0  0  0  0  0  0
    9.8851   41.2346   34.2857 P   0  0  0  0  0  5  0  0  0  0  0  0
   10.3687   41.4661   35.8756 O   0  0  0  0  0  1  0  0  0  0  0  0
    9.9687   45.1019   33.2144 C   0  0  1  0  0  0  0  0  0  0  0  0
   11.0575   46.0377   33.5061 N   0  0  0  0  0  0  0  0  0  0  0  0
    9.7780   44.9520   31.6905 C   0  0  0  0  0  0  0  0  0  0  0  0
    9.2525   46.2167   31.0597 C   0  0  0  0  0  0  0  0  0  0  0  0
    7.8967   46.5565   31.1850 C   0  0  0  0  0  0  0  0  0  0  0  0
   10.1152   47.0795   30.3660 C   0  0  0  0  0  0  0  0  0  0  0  0
    7.4081   47.7373   30.6180 C   0  0  0  0  0  0  0  0  0  0  0  0
    9.6262   48.2600   29.7994 C   0  0  0  0  0  0  0  0  0  0  0  0
    8.2736   48.5998   29.9183 C   0  0  0  0  0  0  0  0  0  0  0  0
    7.8326   49.7954   29.3320 O   0  0  0  0  0  0  0  0  0  0  0  0
    6.4887   50.2639   29.3756 C   0  0  0  0  0  0  0  0  0  0  0  0
    8.8078   40.1915   34.2093 O   0  0  0  0  0  0  0  0  0  0  0  0
   11.2362   40.7938   33.3655 O   0  0  0  0  0  0  0  0  0  0  0  0
   10.9116   40.6855   31.9933 C   0  0  0  0  0  0  0  0  0  0  0  0
   11.5167   39.3782   31.4400 C   0  0  0  0  0  0  0  0  0  0  0  0
   12.7470   39.0877   32.0763 O   0  0  0  0  0  0  0  0  0  0  0  0
   10.6065   38.1855   31.6657 C   0  0  0  0  0  0  0  0  0  0  0  0
   12.9369   37.6818   32.0292 C   0  0  0  0  0  0  0  0  0  0  0  0
    9.6402   38.0885   30.6474 O   0  0  0  0  0  0  0  0  0  0  0  0
   11.5788   37.0139   31.7046 C   0  0  0  0  0  0  0  0  0  0  0  0
   13.4914   37.2185   33.3239 N   0  0  0  0  0  0  0  0  0  0  0  0
   11.6125   36.3392   30.4675 O   0  0  0  0  0  0  0  0  0  0  0  0
   14.4765   36.3273   33.5730 C   0  0  0  0  0  0  0  0  0  0  0  0
   13.1184   37.6318   34.5691 C   0  0  0  0  0  0  0  0  0  0  0  0
   15.2065   35.6141   32.6740 N   0  0  0  0  0  0  0  0  0  0  0  0
   14.6734   36.2274   34.9184 C   0  0  0  0  0  0  0  0  0  0  0  0
   13.8227   37.0456   35.5785 N   0  0  0  0  0  0  0  0  0  0  0  0
   16.1637   34.7594   33.1547 C   0  0  0  0  0  0  0  0  0  0  0  0
   15.6516   35.3491   35.4131 C   0  0  0  0  0  0  0  0  0  0  0  0
   16.3792   34.6309   34.5042 N   0  0  0  0  0  0  0  0  0  0  0  0
   15.9003   35.1932   36.8090 N   0  0  0  0  0  0  0  0  0  0  0  0
    9.0245   45.4685   33.6771 H   0  0  0  0  0  0  0  0  0  0  0  0
   10.7941   46.9817   33.1424 H   0  0  0  0  0  0  0  0  0  0  0  0
   11.1204   46.1581   34.5440 H   0  0  0  0  0  0  0  0  0  0  0  0
   10.7422   44.6550   31.2206 H   0  0  0  0  0  0  0  0  0  0  0  0
    9.0544   44.1335   31.4788 H   0  0  0  0  0  0  0  0  0  0  0  0
    7.2184   45.9061   31.7236 H   0  0  0  0  0  0  0  0  0  0  0  0
   11.1669   46.8410   30.2670 H   0  0  0  0  0  0  0  0  0  0  0  0
    6.3582   47.9705   30.7307 H   0  0  0  0  0  0  0  0  0  0  0  0
   10.3026   48.9163   29.2665 H   0  0  0  0  0  0  0  0  0  0  0  0
    6.1744   50.4250   30.4284 H   0  0  0  0  0  0  0  0  0  0  0  0
    6.4236   51.2295   28.8336 H   0  0  0  0  0  0  0  0  0  0  0  0
    5.8134   49.5331   28.8824 H   0  0  0  0  0  0  0  0  0  0  0  0
   11.3811   41.5430   31.4653 H   0  0  0  0  0  0  0  0  0  0  0  0
    9.8211   40.7193   31.7587 H   0  0  0  0  0  0  0  0  0  0  0  0
   11.7001   39.5027   30.3477 H   0  0  0  0  0  0  0  0  0  0  0  0
   10.1091   38.2753   32.6605 H   0  0  0  0  0  0  0  0  0  0  0  0
   13.6711   37.4604   31.2228 H   0  0  0  0  0  0  0  0  0  0  0  0
    9.0032   37.3837   30.9348 H   0  0  0  0  0  0  0  0  0  0  0  0
   11.2705   36.3053   32.5089 H   0  0  0  0  0  0  0  0  0  0  0  0
   12.1446   35.5142   30.6143 H   0  0  0  0  0  0  0  0  0  0  0  0
   12.3362   38.3594   34.7446 H   0  0  0  0  0  0  0  0  0  0  0  0
   16.7570   34.1788   32.4619 H   0  0  0  0  0  0  0  0  0  0  0  0
   15.3531   35.7355   37.5139 H   0  0  0  0  0  0  0  0  0  0  0  0
   16.6362   34.5314   37.1415 H   0  0  0  0  0  0  0  0  0  0  0  0
  1  2  2  0
  1  3  1  0
  3  4  1  0
  4  5  1  0
  6  1  1  0
  7  6  1  0
  6  8  1  0
  8  9  1  0
  9 10  2  0
 11  9  1  0
 10 12  1  0
 13 11  2  0
 12 14  2  0
 14 13  1  0
 14 15  1  0
 15 16  1  0
  4 17  2  0
  4 18  1  0
 19 18  1  0
 19 20  1  0
 20 21  1  0
 20 22  1  0
 21 23  1  0
 22 24  1  0
 22 25  1  0
 25 23  1  0
 23 26  1  0
 25 27  1  0
 28 26  1  0
 29 26  1  0
 30 28  2  0
 28 31  1  0
 32 29  2  0
 33 30  1  0
 31 34  2  0
 31 32  1  0
 35 33  2  0
 35 34  1  0
 34 36  1  0
  6 37  1  1
  7 38  1  0
  7 39  1  0
  8 40  1  0
  8 41  1  0
 10 42  1  0
 11 43  1  0
 12 44  1  0
 13 45  1  0
 16 46  1  0
 16 47  1  0
 16 48  1  0
 19 49  1  0
 19 50  1  0
 20 51  1  0
 22 52  1  0
 23 53  1  0
 24 54  1  0
 25 55  1  0
 27 56  1  0
 29 57  1  0
 33 58  1  0
 36 59  1  0
 36 60  1  0
M  CHG  1   5  -1
M  END
>  <EmbedRMS>  (45) 
0.0887591003485296

$$$$

     RDKit          3D

 60 63  0  0  0  0  0  0  0  0999 V2000
   10.2941   43.7720   33.7964 C   0  0  0  0  0  0  0  0  0  0  0  0
   11.4140   43.5897   34.3580 O   0  0  0  0  0  0  0  0  0  0  0  0
    9.3670   42.7360   33.7089 O   0  0  0  0  0  0  0  0  0  0  0  0
    9.8867   41.2362   34.2849 P   0  0  0  0  0  5  0  0  0  0  0  0
   10.3700   41.4675   35.8749 O   0  0  0  0  0  1  0  0  0  0  0  0
    9.9763   45.1032   33.2096 C   0  0  1  0  0  0  0  0  0  0  0  0
   11.0440   46.0545   33.5252 N   0  0  0  0  0  0  0  0  0  0  0  0
    9.7503   45.0007   31.6773 C   0  0  0  0  0  0  0  0  0  0  0  0
   10.9966   45.2141   30.8396 C   0  0  0  0  0  0  0  0  0  0  0  0
   12.1360   44.4120   31.0166 C   0  0  0  0  0  0  0  0  0  0  0  0
   11.0136   46.2071   29.8456 C   0  0  0  0  0  0  0  0  0  0  0  0
   13.2709   44.6028   30.2235 C   0  0  0  0  0  0  0  0  0  0  0  0
   12.1487   46.3978   29.0527 C   0  0  0  0  0  0  0  0  0  0  0  0
   13.2843   45.6011   29.2321 C   0  0  0  0  0  0  0  0  0  0  0  0
   14.3977   45.8315   28.4106 O   0  0  0  0  0  0  0  0  0  0  0  0
   15.6155   45.0973   28.4832 C   0  0  0  0  0  0  0  0  0  0  0  0
    8.8089   40.1934   34.2088 O   0  0  0  0  0  0  0  0  0  0  0  0
   11.2368   40.7957   33.3634 O   0  0  0  0  0  0  0  0  0  0  0  0
   10.9067   40.6814   31.9929 C   0  0  0  0  0  0  0  0  0  0  0  0
   11.5221   39.3832   31.4368 C   0  0  0  0  0  0  0  0  0  0  0  0
   12.7458   39.0873   32.0816 O   0  0  0  0  0  0  0  0  0  0  0  0
   10.6091   38.1867   31.6473 C   0  0  0  0  0  0  0  0  0  0  0  0
   12.9346   37.6805   32.0295 C   0  0  0  0  0  0  0  0  0  0  0  0
    9.6117   38.0837   30.6549 O   0  0  0  0  0  0  0  0  0  0  0  0
   11.5774   37.0110   31.7022 C   0  0  0  0  0  0  0  0  0  0  0  0
   13.4902   37.2165   33.3238 N   0  0  0  0  0  0  0  0  0  0  0  0
   11.6336   36.3220   30.4733 O   0  0  0  0  0  0  0  0  0  0  0  0
   14.4763   36.3266   33.5728 C   0  0  0  0  0  0  0  0  0  0  0  0
   13.1180   37.6307   34.5690 C   0  0  0  0  0  0  0  0  0  0  0  0
   15.2065   35.6135   32.6739 N   0  0  0  0  0  0  0  0  0  0  0  0
   14.6737   36.2272   34.9183 C   0  0  0  0  0  0  0  0  0  0  0  0
   13.8229   37.0452   35.5784 N   0  0  0  0  0  0  0  0  0  0  0  0
   16.1640   34.7592   33.1547 C   0  0  0  0  0  0  0  0  0  0  0  0
   15.6519   35.3491   35.4131 C   0  0  0  0  0  0  0  0  0  0  0  0
   16.3795   34.6309   34.5042 N   0  0  0  0  0  0  0  0  0  0  0  0
   15.9005   35.1932   36.8089 N   0  0  0  0  0  0  0  0  0  0  0  0
    9.0286   45.4511   33.6801 H   0  0  0  0  0  0  0  0  0  0  0  0
   11.0596   46.2027   34.5612 H   0  0  0  0  0  0  0  0  0  0  0  0
   10.7870   46.9814   33.1135 H   0  0  0  0  0  0  0  0  0  0  0  0
    9.3031   44.0192   31.4069 H   0  0  0  0  0  0  0  0  0  0  0  0
    8.9876   45.7622   31.4025 H   0  0  0  0  0  0  0  0  0  0  0  0
   12.1581   43.6478   31.7774 H   0  0  0  0  0  0  0  0  0  0  0  0
   10.1479   46.8364   29.6807 H   0  0  0  0  0  0  0  0  0  0  0  0
   14.1319   43.9702   30.3907 H   0  0  0  0  0  0  0  0  0  0  0  0
   12.1453   47.1687   28.2924 H   0  0  0  0  0  0  0  0  0  0  0  0
   16.3204   45.4879   27.7210 H   0  0  0  0  0  0  0  0  0  0  0  0
   16.0747   45.2177   29.4871 H   0  0  0  0  0  0  0  0  0  0  0  0
   15.4265   44.0229   28.2754 H   0  0  0  0  0  0  0  0  0  0  0  0
   11.3631   41.5353   31.4559 H   0  0  0  0  0  0  0  0  0  0  0  0
    9.8149   40.7053   31.7628 H   0  0  0  0  0  0  0  0  0  0  0  0
   11.7249   39.5239   30.3504 H   0  0  0  0  0  0  0  0  0  0  0  0
   10.1114   38.2676   32.6395 H   0  0  0  0  0  0  0  0  0  0  0  0
   13.6689   37.4606   31.2228 H   0  0  0  0  0  0  0  0  0  0  0  0
   10.0503   38.1063   29.7649 H   0  0  0  0  0  0  0  0  0  0  0  0
   11.2819   36.3095   32.5186 H   0  0  0  0  0  0  0  0  0  0  0  0
   10.8650   35.6935   30.4635 H   0  0  0  0  0  0  0  0  0  0  0  0
   12.3356   38.3580   34.7446 H   0  0  0  0  0  0  0  0  0  0  0  0
   16.7575   34.1787   32.4619 H   0  0  0  0  0  0  0  0  0  0  0  0
   15.3532   35.7355   37.5138 H   0  0  0  0  0  0  0  0  0  0  0  0
   16.6364   34.5315   37.1415 H   0  0  0  0  0  0  0  0  0  0  0  0
  1  2  2  0
  1  3  1  0
  3  4  1  0
  4  5  1  0
  6  1  1  0
  7  6  1  0
  6  8  1  0
  8  9  1  0
  9 10  2  0
 11  9  1  0
 10 12  1  0
 13 11  2  0
 12 14  2  0
 14 13  1  0
 14 15  1  0
 15 16  1  0
  4 17  2  0
  4 18  1  0
 19 18  1  0
 19 20  1  0
 20 21  1  0
 20 22  1  0
 21 23  1  0
 22 24  1  0
 22 25  1  0
 25 23  1  0
 23 26  1  0
 25 27  1  0
 28 26  1  0
 29 26  1  0
 30 28  2  0
 28 31  1  0
 32 29  2  0
 33 30  1  0
 31 34  2  0
 31 32  1  0
 35 33  2  0
 35 34  1  0
 34 36  1  0
  6 37  1  1
  7 38  1  0
  7 39  1  0
  8 40  1  0
  8 41  1  0
 10 42  1  0
 11 43  1  0
 12 44  1  0
 13 45  1  0
 16 46  1  0
 16 47  1  0
 16 48  1  0
 19 49  1  0
 19 50  1  0
 20 51  1  0
 22 52  1  0
 23 53  1  0
 24 54  1  0
 25 55  1  0
 27 56  1  0
 29 57  1  0
 33 58  1  0
 36 59  1  0
 36 60  1  0
M  CHG  1   5  -1
M  END
>  <EmbedRMS>  (46) 
0.08891160545176788

$$$$

     RDKit          3D

 60 63  0  0  0  0  0  0  0  0999 V2000
   10.2877   43.7695   33.7810 C   0  0  0  0  0  0  0  0  0  0  0  0
   11.4118   43.5816   34.3339 O   0  0  0  0  0  0  0  0  0  0  0  0
    9.3648   42.7312   33.6885 O   0  0  0  0  0  0  0  0  0  0  0  0
    9.8821   41.2349   34.2813 P   0  0  0  0  0  5  0  0  0  0  0  0
   10.3605   41.4750   35.8721 O   0  0  0  0  0  1  0  0  0  0  0  0
    9.9275   45.1410   33.3245 C   0  0  1  0  0  0  0  0  0  0  0  0
   11.0836   46.0290   33.4533 N   0  0  0  0  0  0  0  0  0  0  0  0
    9.2709   45.2037   31.9234 C   0  0  0  0  0  0  0  0  0  0  0  0
   10.0928   44.6121   30.8036 C   0  0  0  0  0  0  0  0  0  0  0  0
   11.1434   45.3404   30.2229 C   0  0  0  0  0  0  0  0  0  0  0  0
    9.7594   43.3563   30.2740 C   0  0  0  0  0  0  0  0  0  0  0  0
   11.8781   44.8013   29.1625 C   0  0  0  0  0  0  0  0  0  0  0  0
   10.4867   42.8219   29.2066 C   0  0  0  0  0  0  0  0  0  0  0  0
   11.5554   43.5311   28.6486 C   0  0  0  0  0  0  0  0  0  0  0  0
   12.2637   42.9450   27.5892 O   0  0  0  0  0  0  0  0  0  0  0  0
   13.3734   43.5493   26.9330 C   0  0  0  0  0  0  0  0  0  0  0  0
    8.8046   40.1921   34.2082 O   0  0  0  0  0  0  0  0  0  0  0  0
   11.2370   40.7792   33.3767 O   0  0  0  0  0  0  0  0  0  0  0  0
   10.9287   40.6874   32.0014 C   0  0  0  0  0  0  0  0  0  0  0  0
   11.5287   39.3862   31.4384 C   0  0  0  0  0  0  0  0  0  0  0  0
   12.7525   39.0852   32.0790 O   0  0  0  0  0  0  0  0  0  0  0  0
   10.6111   38.1917   31.6482 C   0  0  0  0  0  0  0  0  0  0  0  0
   12.9356   37.6783   32.0290 C   0  0  0  0  0  0  0  0  0  0  0  0
    9.6137   38.0898   30.6553 O   0  0  0  0  0  0  0  0  0  0  0  0
   11.5764   37.0129   31.7028 C   0  0  0  0  0  0  0  0  0  0  0  0
   13.4901   37.2150   33.3237 N   0  0  0  0  0  0  0  0  0  0  0  0
   11.6308   36.3232   30.4740 O   0  0  0  0  0  0  0  0  0  0  0  0
   14.4765   36.3259   33.5730 C   0  0  0  0  0  0  0  0  0  0  0  0
   13.1179   37.6300   34.5687 C   0  0  0  0  0  0  0  0  0  0  0  0
   15.2068   35.6129   32.6741 N   0  0  0  0  0  0  0  0  0  0  0  0
   14.6738   36.2269   34.9184 C   0  0  0  0  0  0  0  0  0  0  0  0
   13.8230   37.0451   35.5784 N   0  0  0  0  0  0  0  0  0  0  0  0
   16.1644   34.7589   33.1550 C   0  0  0  0  0  0  0  0  0  0  0  0
   15.6521   35.3490   35.4133 C   0  0  0  0  0  0  0  0  0  0  0  0
   16.3798   34.6307   34.5045 N   0  0  0  0  0  0  0  0  0  0  0  0
   15.9006   35.1932   36.8092 N   0  0  0  0  0  0  0  0  0  0  0  0
    9.1607   45.5049   34.0432 H   0  0  0  0  0  0  0  0  0  0  0  0
   11.8540   45.7048   32.8257 H   0  0  0  0  0  0  0  0  0  0  0  0
   10.8108   46.9931   33.1533 H   0  0  0  0  0  0  0  0  0  0  0  0
    9.0402   46.2633   31.6778 H   0  0  0  0  0  0  0  0  0  0  0  0
    8.2850   44.6907   31.9751 H   0  0  0  0  0  0  0  0  0  0  0  0
   11.3872   46.3323   30.5814 H   0  0  0  0  0  0  0  0  0  0  0  0
    8.9333   42.7899   30.6851 H   0  0  0  0  0  0  0  0  0  0  0  0
   12.6876   45.3836   28.7441 H   0  0  0  0  0  0  0  0  0  0  0  0
   10.2229   41.8469   28.8166 H   0  0  0  0  0  0  0  0  0  0  0  0
   13.7423   42.8660   26.1410 H   0  0  0  0  0  0  0  0  0  0  0  0
   13.0636   44.5058   26.4615 H   0  0  0  0  0  0  0  0  0  0  0  0
   14.1946   43.7289   27.6588 H   0  0  0  0  0  0  0  0  0  0  0  0
    9.8426   40.7330   31.7519 H   0  0  0  0  0  0  0  0  0  0  0  0
   11.4289   41.5391   31.4979 H   0  0  0  0  0  0  0  0  0  0  0  0
   11.7287   39.5304   30.3519 H   0  0  0  0  0  0  0  0  0  0  0  0
   10.1132   38.2742   32.6400 H   0  0  0  0  0  0  0  0  0  0  0  0
   13.6690   37.4547   31.2224 H   0  0  0  0  0  0  0  0  0  0  0  0
   10.0525   38.1165   29.7655 H   0  0  0  0  0  0  0  0  0  0  0  0
   11.2794   36.3124   32.5195 H   0  0  0  0  0  0  0  0  0  0  0  0
   10.8600   35.6976   30.4640 H   0  0  0  0  0  0  0  0  0  0  0  0
   12.3355   38.3573   34.7440 H   0  0  0  0  0  0  0  0  0  0  0  0
   16.7579   34.1784   32.4623 H   0  0  0  0  0  0  0  0  0  0  0  0
   16.6365   34.5315   37.1418 H   0  0  0  0  0  0  0  0  0  0  0  0
   15.3532   35.7355   37.5140 H   0  0  0  0  0  0  0  0  0  0  0  0
  1  2  2  0
  1  3  1  0
  3  4  1  0
  4  5  1  0
  6  1  1  0
  7  6  1  0
  6  8  1  0
  8  9  1  0
  9 10  2  0
 11  9  1  0
 10 12  1  0
 13 11  2  0
 12 14  2  0
 14 13  1  0
 14 15  1  0
 15 16  1  0
  4 17  2  0
  4 18  1  0
 19 18  1  0
 19 20  1  0
 20 21  1  0
 20 22  1  0
 21 23  1  0
 22 24  1  0
 22 25  1  0
 25 23  1  0
 23 26  1  0
 25 27  1  0
 28 26  1  0
 29 26  1  0
 30 28  2  0
 28 31  1  0
 32 29  2  0
 33 30  1  0
 31 34  2  0
 31 32  1  0
 35 33  2  0
 35 34  1  0
 34 36  1  0
  6 37  1  1
  7 38  1  0
  7 39  1  0
  8 40  1  0
  8 41  1  0
 10 42  1  0
 11 43  1  0
 12 44  1  0
 13 45  1  0
 16 46  1  0
 16 47  1  0
 16 48  1  0
 19 49  1  0
 19 50  1  0
 20 51  1  0
 22 52  1  0
 23 53  1  0
 24 54  1  0
 25 55  1  0
 27 56  1  0
 29 57  1  0
 33 58  1  0
 36 59  1  0
 36 60  1  0
M  CHG  1   5  -1
M  END
>  <EmbedRMS>  (47) 
0.09201403130108181

$$$$

     RDKit          3D

 60 63  0  0  0  0  0  0  0  0999 V2000
   10.2941   43.7720   33.7964 C   0  0  0  0  0  0  0  0  0  0  0  0
   11.4140   43.5898   34.3580 O   0  0  0  0  0  0  0  0  0  0  0  0
    9.3673   42.7357   33.7086 O   0  0  0  0  0  0  0  0  0  0  0  0
    9.8872   41.2359   34.2845 P   0  0  0  0  0  5  0  0  0  0  0  0
   10.3696   41.4673   35.8748 O   0  0  0  0  0  1  0  0  0  0  0  0
    9.9759   45.1033   33.2101 C   0  0  1  0  0  0  0  0  0  0  0  0
   11.0440   46.0544   33.5250 N   0  0  0  0  0  0  0  0  0  0  0  0
    9.7482   45.0013   31.6780 C   0  0  0  0  0  0  0  0  0  0  0  0
   10.9937   45.2144   30.8391 C   0  0  0  0  0  0  0  0  0  0  0  0
   12.1331   44.4122   31.0151 C   0  0  0  0  0  0  0  0  0  0  0  0
   11.0098   46.2072   29.8447 C   0  0  0  0  0  0  0  0  0  0  0  0
   13.2672   44.6026   30.2208 C   0  0  0  0  0  0  0  0  0  0  0  0
   12.1441   46.3976   29.0507 C   0  0  0  0  0  0  0  0  0  0  0  0
   13.2797   45.6007   29.2291 C   0  0  0  0  0  0  0  0  0  0  0  0
   14.3924   45.8307   28.4064 O   0  0  0  0  0  0  0  0  0  0  0  0
   15.6101   45.0962   28.4779 C   0  0  0  0  0  0  0  0  0  0  0  0
    8.8094   40.1931   34.2079 O   0  0  0  0  0  0  0  0  0  0  0  0
   11.2382   40.7957   33.3638 O   0  0  0  0  0  0  0  0  0  0  0  0
   10.9106   40.6821   31.9926 C   0  0  0  0  0  0  0  0  0  0  0  0
   11.5141   39.3760   31.4401 C   0  0  0  0  0  0  0  0  0  0  0  0
   12.7451   39.0854   32.0745 O   0  0  0  0  0  0  0  0  0  0  0  0
   10.6021   38.1850   31.6671 C   0  0  0  0  0  0  0  0  0  0  0  0
   12.9333   37.6793   32.0282 C   0  0  0  0  0  0  0  0  0  0  0  0
    9.6390   38.0740   30.6458 O   0  0  0  0  0  0  0  0  0  0  0  0
   11.5746   37.0131   31.7055 C   0  0  0  0  0  0  0  0  0  0  0  0
   13.4904   37.2177   33.3232 N   0  0  0  0  0  0  0  0  0  0  0  0
   11.6223   36.3366   30.4687 O   0  0  0  0  0  0  0  0  0  0  0  0
   14.4762   36.3273   33.5725 C   0  0  0  0  0  0  0  0  0  0  0  0
   13.1179   37.6316   34.5685 C   0  0  0  0  0  0  0  0  0  0  0  0
   15.2063   35.6139   32.6738 N   0  0  0  0  0  0  0  0  0  0  0  0
   14.6734   36.2277   34.9180 C   0  0  0  0  0  0  0  0  0  0  0  0
   13.8226   37.0459   35.5780 N   0  0  0  0  0  0  0  0  0  0  0  0
   16.1636   34.7594   33.1546 C   0  0  0  0  0  0  0  0  0  0  0  0
   15.6516   35.3494   35.4129 C   0  0  0  0  0  0  0  0  0  0  0  0
   16.3791   34.6311   34.5041 N   0  0  0  0  0  0  0  0  0  0  0  0
   15.9002   35.1935   36.8088 N   0  0  0  0  0  0  0  0  0  0  0  0
    9.0288   45.4512   33.6816 H   0  0  0  0  0  0  0  0  0  0  0  0
   10.7869   46.9815   33.1136 H   0  0  0  0  0  0  0  0  0  0  0  0
   11.0606   46.2026   34.5610 H   0  0  0  0  0  0  0  0  0  0  0  0
    8.9856   45.7633   31.4043 H   0  0  0  0  0  0  0  0  0  0  0  0
    9.3003   44.0201   31.4078 H   0  0  0  0  0  0  0  0  0  0  0  0
   12.1557   43.6482   31.7760 H   0  0  0  0  0  0  0  0  0  0  0  0
   10.1440   46.8366   29.6806 H   0  0  0  0  0  0  0  0  0  0  0  0
   14.1283   43.9699   30.3872 H   0  0  0  0  0  0  0  0  0  0  0  0
   12.1400   47.1682   28.2902 H   0  0  0  0  0  0  0  0  0  0  0  0
   15.4207   44.0218   28.2705 H   0  0  0  0  0  0  0  0  0  0  0  0
   16.0703   45.2168   29.4813 H   0  0  0  0  0  0  0  0  0  0  0  0
   16.3143   45.4866   27.7149 H   0  0  0  0  0  0  0  0  0  0  0  0
    9.8211   40.7258   31.7592 H   0  0  0  0  0  0  0  0  0  0  0  0
   11.3814   41.5282   31.4557 H   0  0  0  0  0  0  0  0  0  0  0  0
   11.6957   39.4992   30.3473 H   0  0  0  0  0  0  0  0  0  0  0  0
   10.1082   38.2578   32.6657 H   0  0  0  0  0  0  0  0  0  0  0  0
   13.6659   37.4554   31.2210 H   0  0  0  0  0  0  0  0  0  0  0  0
    8.8912   38.6788   30.8900 H   0  0  0  0  0  0  0  0  0  0  0  0
   11.2864   36.3026   32.5167 H   0  0  0  0  0  0  0  0  0  0  0  0
   10.8547   35.7071   30.4579 H   0  0  0  0  0  0  0  0  0  0  0  0
   12.3353   38.3587   34.7441 H   0  0  0  0  0  0  0  0  0  0  0  0
   16.7570   34.1788   32.4619 H   0  0  0  0  0  0  0  0  0  0  0  0
   16.6360   34.5316   37.1414 H   0  0  0  0  0  0  0  0  0  0  0  0
   15.3530   35.7358   37.5137 H   0  0  0  0  0  0  0  0  0  0  0  0
  1  2  2  0
  1  3  1  0
  3  4  1  0
  4  5  1  0
  6  1  1  0
  7  6  1  0
  6  8  1  0
  8  9  1  0
  9 10  2  0
 11  9  1  0
 10 12  1  0
 13 11  2  0
 12 14  2  0
 14 13  1  0
 14 15  1  0
 15 16  1  0
  4 17  2  0
  4 18  1  0
 19 18  1  0
 19 20  1  0
 20 21  1  0
 20 22  1  0
 21 23  1  0
 22 24  1  0
 22 25  1  0
 25 23  1  0
 23 26  1  0
 25 27  1  0
 28 26  1  0
 29 26  1  0
 30 28  2  0
 28 31  1  0
 32 29  2  0
 33 30  1  0
 31 34  2  0
 31 32  1  0
 35 33  2  0
 35 34  1  0
 34 36  1  0
  6 37  1  1
  7 38  1  0
  7 39  1  0
  8 40  1  0
  8 41  1  0
 10 42  1  0
 11 43  1  0
 12 44  1  0
 13 45  1  0
 16 46  1  0
 16 47  1  0
 16 48  1  0
 19 49  1  0
 19 50  1  0
 20 51  1  0
 22 52  1  0
 23 53  1  0
 24 54  1  0
 25 55  1  0
 27 56  1  0
 29 57  1  0
 33 58  1  0
 36 59  1  0
 36 60  1  0
M  CHG  1   5  -1
M  END
>  <EmbedRMS>  (48) 
0.09022702960545886

$$$$

     RDKit          3D

 60 63  0  0  0  0  0  0  0  0999 V2000
   10.2905   43.7681   33.8031 C   0  0  0  0  0  0  0  0  0  0  0  0
   11.4118   43.5808   34.3604 O   0  0  0  0  0  0  0  0  0  0  0  0
    9.3646   42.7325   33.7093 O   0  0  0  0  0  0  0  0  0  0  0  0
    9.8844   41.2330   34.2855 P   0  0  0  0  0  5  0  0  0  0  0  0
   10.3662   41.4654   35.8759 O   0  0  0  0  0  1  0  0  0  0  0  0
    9.9697   45.1049   33.2283 C   0  0  1  0  0  0  0  0  0  0  0  0
   11.0568   46.0521   33.4894 N   0  0  0  0  0  0  0  0  0  0  0  0
    9.7166   44.9858   31.7145 C   0  0  0  0  0  0  0  0  0  0  0  0
    9.2973   46.3068   31.1222 C   0  0  0  0  0  0  0  0  0  0  0  0
   10.2448   47.1494   30.5205 C   0  0  0  0  0  0  0  0  0  0  0  0
    7.9612   46.7267   31.2079 C   0  0  0  0  0  0  0  0  0  0  0  0
    9.8587   48.3867   29.9964 C   0  0  0  0  0  0  0  0  0  0  0  0
    7.5755   47.9636   30.6836 C   0  0  0  0  0  0  0  0  0  0  0  0
    8.5156   48.8026   30.0740 C   0  0  0  0  0  0  0  0  0  0  0  0
    8.0782   50.0337   29.5633 O   0  0  0  0  0  0  0  0  0  0  0  0
    8.9229   50.9828   28.9205 C   0  0  0  0  0  0  0  0  0  0  0  0
    8.8071   40.1901   34.2080 O   0  0  0  0  0  0  0  0  0  0  0  0
   11.2372   40.7918   33.3683 O   0  0  0  0  0  0  0  0  0  0  0  0
   10.9174   40.6897   31.9948 C   0  0  0  0  0  0  0  0  0  0  0  0
   11.5174   39.3807   31.4400 C   0  0  0  0  0  0  0  0  0  0  0  0
   12.7479   39.0882   32.0754 O   0  0  0  0  0  0  0  0  0  0  0  0
   10.6051   38.1878   31.6656 C   0  0  0  0  0  0  0  0  0  0  0  0
   12.9359   37.6822   32.0289 C   0  0  0  0  0  0  0  0  0  0  0  0
    9.6422   38.0740   30.6443 O   0  0  0  0  0  0  0  0  0  0  0  0
   11.5764   37.0162   31.7046 C   0  0  0  0  0  0  0  0  0  0  0  0
   13.4908   37.2185   33.3237 N   0  0  0  0  0  0  0  0  0  0  0  0
   11.6103   36.3401   30.4681 O   0  0  0  0  0  0  0  0  0  0  0  0
   14.4761   36.3275   33.5727 C   0  0  0  0  0  0  0  0  0  0  0  0
   13.1181   37.6319   34.5689 C   0  0  0  0  0  0  0  0  0  0  0  0
   15.2063   35.6142   32.6738 N   0  0  0  0  0  0  0  0  0  0  0  0
   14.6733   36.2275   34.9182 C   0  0  0  0  0  0  0  0  0  0  0  0
   13.8226   37.0457   35.5783 N   0  0  0  0  0  0  0  0  0  0  0  0
   16.1635   34.7595   33.1545 C   0  0  0  0  0  0  0  0  0  0  0  0
   15.6515   35.3492   35.4130 C   0  0  0  0  0  0  0  0  0  0  0  0
   16.3790   34.6310   34.5040 N   0  0  0  0  0  0  0  0  0  0  0  0
   15.9002   35.1933   36.8088 N   0  0  0  0  0  0  0  0  0  0  0  0
    9.0440   45.4764   33.7208 H   0  0  0  0  0  0  0  0  0  0  0  0
   11.9530   45.6972   33.0807 H   0  0  0  0  0  0  0  0  0  0  0  0
   11.1827   46.1618   34.5226 H   0  0  0  0  0  0  0  0  0  0  0  0
   10.6326   44.6102   31.2059 H   0  0  0  0  0  0  0  0  0  0  0  0
    8.9152   44.2375   31.5253 H   0  0  0  0  0  0  0  0  0  0  0  0
   11.2837   46.8493   30.4591 H   0  0  0  0  0  0  0  0  0  0  0  0
    7.2190   46.0963   31.6820 H   0  0  0  0  0  0  0  0  0  0  0  0
   10.6113   49.0122   29.5364 H   0  0  0  0  0  0  0  0  0  0  0  0
    6.5406   48.2736   30.7535 H   0  0  0  0  0  0  0  0  0  0  0  0
    9.7163   51.3227   29.6192 H   0  0  0  0  0  0  0  0  0  0  0  0
    8.3167   51.8607   28.6171 H   0  0  0  0  0  0  0  0  0  0  0  0
    9.3791   50.5347   28.0126 H   0  0  0  0  0  0  0  0  0  0  0  0
    9.8293   40.7381   31.7558 H   0  0  0  0  0  0  0  0  0  0  0  0
   11.3966   41.5449   31.4721 H   0  0  0  0  0  0  0  0  0  0  0  0
   11.6998   39.5053   30.3476 H   0  0  0  0  0  0  0  0  0  0  0  0
   10.1099   38.2621   32.6635 H   0  0  0  0  0  0  0  0  0  0  0  0
   13.6694   37.4595   31.2222 H   0  0  0  0  0  0  0  0  0  0  0  0
    8.9002   38.6889   30.8807 H   0  0  0  0  0  0  0  0  0  0  0  0
   11.2689   36.3073   32.5092 H   0  0  0  0  0  0  0  0  0  0  0  0
   12.1429   35.5155   30.6155 H   0  0  0  0  0  0  0  0  0  0  0  0
   12.3359   38.3594   34.7446 H   0  0  0  0  0  0  0  0  0  0  0  0
   16.7568   34.1790   32.4617 H   0  0  0  0  0  0  0  0  0  0  0  0
   16.6361   34.5315   37.1413 H   0  0  0  0  0  0  0  0  0  0  0  0
   15.3530   35.7356   37.5137 H   0  0  0  0  0  0  0  0  0  0  0  0
  1  2  2  0
  1  3  1  0
  3  4  1  0
  4  5  1  0
  6  1  1  0
  7  6  1  0
  6  8  1  0
  8  9  1  0
  9 10  2  0
 11  9  1  0
 10 12  1  0
 13 11  2  0
 12 14  2  0
 14 13  1  0
 14 15  1  0
 15 16  1  0
  4 17  2  0
  4 18  1  0
 19 18  1  0
 19 20  1  0
 20 21  1  0
 20 22  1  0
 21 23  1  0
 22 24  1  0
 22 25  1  0
 25 23  1  0
 23 26  1  0
 25 27  1  0
 28 26  1  0
 29 26  1  0
 30 28  2  0
 28 31  1  0
 32 29  2  0
 33 30  1  0
 31 34  2  0
 31 32  1  0
 35 33  2  0
 35 34  1  0
 34 36  1  0
  6 37  1  1
  7 38  1  0
  7 39  1  0
  8 40  1  0
  8 41  1  0
 10 42  1  0
 11 43  1  0
 12 44  1  0
 13 45  1  0
 16 46  1  0
 16 47  1  0
 16 48  1  0
 19 49  1  0
 19 50  1  0
 20 51  1  0
 22 52  1  0
 23 53  1  0
 24 54  1  0
 25 55  1  0
 27 56  1  0
 29 57  1  0
 33 58  1  0
 36 59  1  0
 36 60  1  0
M  CHG  1   5  -1
M  END
>  <EmbedRMS>  (49) 
0.08973808959066189

$$$$

     RDKit          3D

 60 63  0  0  0  0  0  0  0  0999 V2000
   10.2905   43.7682   33.8031 C   0  0  0  0  0  0  0  0  0  0  0  0
   11.4118   43.5808   34.3603 O   0  0  0  0  0  0  0  0  0  0  0  0
    9.3644   42.7327   33.7095 O   0  0  0  0  0  0  0  0  0  0  0  0
    9.8841   41.2332   34.2859 P   0  0  0  0  0  5  0  0  0  0  0  0
   10.3664   41.4657   35.8761 O   0  0  0  0  0  1  0  0  0  0  0  0
    9.9697   45.1050   33.2283 C   0  0  1  0  0  0  0  0  0  0  0  0
   11.0569   46.0521   33.4894 N   0  0  0  0  0  0  0  0  0  0  0  0
    9.7165   44.9859   31.7146 C   0  0  0  0  0  0  0  0  0  0  0  0
    9.2976   46.3071   31.1223 C   0  0  0  0  0  0  0  0  0  0  0  0
    7.9617   46.7277   31.2085 C   0  0  0  0  0  0  0  0  0  0  0  0
   10.2453   47.1493   30.5203 C   0  0  0  0  0  0  0  0  0  0  0  0
    7.5765   47.9648   30.6845 C   0  0  0  0  0  0  0  0  0  0  0  0
    9.8596   48.3868   29.9965 C   0  0  0  0  0  0  0  0  0  0  0  0
    8.5168   48.8034   30.0747 C   0  0  0  0  0  0  0  0  0  0  0  0
    8.0799   50.0349   29.5644 O   0  0  0  0  0  0  0  0  0  0  0  0
    8.9249   50.9838   28.9219 C   0  0  0  0  0  0  0  0  0  0  0  0
    8.8067   40.1904   34.2088 O   0  0  0  0  0  0  0  0  0  0  0  0
   11.2361   40.7915   33.3682 O   0  0  0  0  0  0  0  0  0  0  0  0
   10.9147   40.6898   31.9952 C   0  0  0  0  0  0  0  0  0  0  0  0
   11.5246   39.3879   31.4367 C   0  0  0  0  0  0  0  0  0  0  0  0
   12.7481   39.0885   32.0807 O   0  0  0  0  0  0  0  0  0  0  0  0
   10.6098   38.1913   31.6470 C   0  0  0  0  0  0  0  0  0  0  0  0
   12.9346   37.6813   32.0293 C   0  0  0  0  0  0  0  0  0  0  0  0
    9.6125   38.0876   30.6545 O   0  0  0  0  0  0  0  0  0  0  0  0
   11.5766   37.0137   31.7026 C   0  0  0  0  0  0  0  0  0  0  0  0
   13.4901   37.2168   33.3236 N   0  0  0  0  0  0  0  0  0  0  0  0
   11.6322   36.3233   30.4742 O   0  0  0  0  0  0  0  0  0  0  0  0
   14.4762   36.3267   33.5727 C   0  0  0  0  0  0  0  0  0  0  0  0
   13.1179   37.6308   34.5689 C   0  0  0  0  0  0  0  0  0  0  0  0
   15.2065   35.6136   32.6738 N   0  0  0  0  0  0  0  0  0  0  0  0
   14.6735   36.2272   34.9182 C   0  0  0  0  0  0  0  0  0  0  0  0
   13.8228   37.0453   35.5783 N   0  0  0  0  0  0  0  0  0  0  0  0
   16.1639   34.7593   33.1546 C   0  0  0  0  0  0  0  0  0  0  0  0
   15.6518   35.3491   35.4130 C   0  0  0  0  0  0  0  0  0  0  0  0
   16.3794   34.6309   34.5041 N   0  0  0  0  0  0  0  0  0  0  0  0
   15.9004   35.1933   36.8089 N   0  0  0  0  0  0  0  0  0  0  0  0
    9.0440   45.4766   33.7209 H   0  0  0  0  0  0  0  0  0  0  0  0
   11.9531   45.6972   33.0807 H   0  0  0  0  0  0  0  0  0  0  0  0
   11.1828   46.1617   34.5226 H   0  0  0  0  0  0  0  0  0  0  0  0
   10.6324   44.6101   31.2059 H   0  0  0  0  0  0  0  0  0  0  0  0
    8.9148   44.2379   31.5254 H   0  0  0  0  0  0  0  0  0  0  0  0
    7.2194   46.0976   31.6829 H   0  0  0  0  0  0  0  0  0  0  0  0
   11.2840   46.8486   30.4585 H   0  0  0  0  0  0  0  0  0  0  0  0
    6.5418   48.2754   30.7549 H   0  0  0  0  0  0  0  0  0  0  0  0
   10.6124   49.0120   29.5362 H   0  0  0  0  0  0  0  0  0  0  0  0
    8.3191   51.8622   28.6190 H   0  0  0  0  0  0  0  0  0  0  0  0
    9.7186   51.3231   29.6206 H   0  0  0  0  0  0  0  0  0  0  0  0
    9.3807   50.5359   28.0137 H   0  0  0  0  0  0  0  0  0  0  0  0
    9.8245   40.7211   31.7584 H   0  0  0  0  0  0  0  0  0  0  0  0
   11.3823   41.5520   31.4731 H   0  0  0  0  0  0  0  0  0  0  0  0
   11.7269   39.5295   30.3505 H   0  0  0  0  0  0  0  0  0  0  0  0
   10.1118   38.2733   32.6389 H   0  0  0  0  0  0  0  0  0  0  0  0
   13.6683   37.4600   31.2224 H   0  0  0  0  0  0  0  0  0  0  0  0
   10.0514   38.1115   29.7647 H   0  0  0  0  0  0  0  0  0  0  0  0
   11.2801   36.3133   32.5196 H   0  0  0  0  0  0  0  0  0  0  0  0
   10.8624   35.6963   30.4646 H   0  0  0  0  0  0  0  0  0  0  0  0
   12.3356   38.3582   34.7446 H   0  0  0  0  0  0  0  0  0  0  0  0
   16.7574   34.1788   32.4619 H   0  0  0  0  0  0  0  0  0  0  0  0
   16.6364   34.5315   37.1414 H   0  0  0  0  0  0  0  0  0  0  0  0
   15.3531   35.7355   37.5137 H   0  0  0  0  0  0  0  0  0  0  0  0
  1  2  2  0
  1  3  1  0
  3  4  1  0
  4  5  1  0
  6  1  1  0
  7  6  1  0
  6  8  1  0
  8  9  1  0
  9 10  2  0
 11  9  1  0
 10 12  1  0
 13 11  2  0
 12 14  2  0
 14 13  1  0
 14 15  1  0
 15 16  1  0
  4 17  2  0
  4 18  1  0
 19 18  1  0
 19 20  1  0
 20 21  1  0
 20 22  1  0
 21 23  1  0
 22 24  1  0
 22 25  1  0
 25 23  1  0
 23 26  1  0
 25 27  1  0
 28 26  1  0
 29 26  1  0
 30 28  2  0
 28 31  1  0
 32 29  2  0
 33 30  1  0
 31 34  2  0
 31 32  1  0
 35 33  2  0
 35 34  1  0
 34 36  1  0
  6 37  1  1
  7 38  1  0
  7 39  1  0
  8 40  1  0
  8 41  1  0
 10 42  1  0
 11 43  1  0
 12 44  1  0
 13 45  1  0
 16 46  1  0
 16 47  1  0
 16 48  1  0
 19 49  1  0
 19 50  1  0
 20 51  1  0
 22 52  1  0
 23 53  1  0
 24 54  1  0
 25 55  1  0
 27 56  1  0
 29 57  1  0
 33 58  1  0
 36 59  1  0
 36 60  1  0
M  CHG  1   5  -1
M  END
>  <EmbedRMS>  (50) 
0.08856499070200793

$$$$

     RDKit          3D

 60 63  0  0  0  0  0  0  0  0999 V2000
   10.2877   43.7723   33.7998 C   0  0  0  0  0  0  0  0  0  0  0  0
   11.4101   43.5905   34.3571 O   0  0  0  0  0  0  0  0  0  0  0  0
    9.3644   42.7336   33.7091 O   0  0  0  0  0  0  0  0  0  0  0  0
    9.8858   41.2347   34.2856 P   0  0  0  0  0  5  0  0  0  0  0  0
   10.3676   41.4673   35.8758 O   0  0  0  0  0  1  0  0  0  0  0  0
    9.9623   45.1042   33.2247 C   0  0  1  0  0  0  0  0  0  0  0  0
   11.0638   46.0309   33.4992 N   0  0  0  0  0  0  0  0  0  0  0  0
    9.6877   44.9760   31.7099 C   0  0  0  0  0  0  0  0  0  0  0  0
    9.2405   46.2844   31.1099 C   0  0  0  0  0  0  0  0  0  0  0  0
   10.1507   47.0991   30.4191 C   0  0  0  0  0  0  0  0  0  0  0  0
    7.9156   46.7180   31.2706 C   0  0  0  0  0  0  0  0  0  0  0  0
    9.7376   48.3234   29.8863 C   0  0  0  0  0  0  0  0  0  0  0  0
    7.5027   47.9426   30.7373 C   0  0  0  0  0  0  0  0  0  0  0  0
    8.4151   48.7560   30.0382 C   0  0  0  0  0  0  0  0  0  0  0  0
    8.0505   49.9924   29.4850 O   0  0  0  0  0  0  0  0  0  0  0  0
    6.7447   50.5545   29.5643 C   0  0  0  0  0  0  0  0  0  0  0  0
    8.8087   40.1914   34.2086 O   0  0  0  0  0  0  0  0  0  0  0  0
   11.2380   40.7931   33.3680 O   0  0  0  0  0  0  0  0  0  0  0  0
   10.9174   40.6899   31.9947 C   0  0  0  0  0  0  0  0  0  0  0  0
   11.5174   39.3808   31.4401 C   0  0  0  0  0  0  0  0  0  0  0  0
   12.7478   39.0882   32.0755 O   0  0  0  0  0  0  0  0  0  0  0  0
   10.6051   38.1879   31.6656 C   0  0  0  0  0  0  0  0  0  0  0  0
   12.9359   37.6822   32.0289 C   0  0  0  0  0  0  0  0  0  0  0  0
    9.6422   38.0740   30.6444 O   0  0  0  0  0  0  0  0  0  0  0  0
   11.5764   37.0163   31.7047 C   0  0  0  0  0  0  0  0  0  0  0  0
   13.4908   37.2185   33.3237 N   0  0  0  0  0  0  0  0  0  0  0  0
   11.6102   36.3402   30.4681 O   0  0  0  0  0  0  0  0  0  0  0  0
   14.4761   36.3275   33.5727 C   0  0  0  0  0  0  0  0  0  0  0  0
   13.1181   37.6319   34.5690 C   0  0  0  0  0  0  0  0  0  0  0  0
   15.2063   35.6142   32.6738 N   0  0  0  0  0  0  0  0  0  0  0  0
   14.6733   36.2276   34.9182 C   0  0  0  0  0  0  0  0  0  0  0  0
   13.8226   37.0457   35.5783 N   0  0  0  0  0  0  0  0  0  0  0  0
   16.1635   34.7595   33.1545 C   0  0  0  0  0  0  0  0  0  0  0  0
   15.6515   35.3492   35.4130 C   0  0  0  0  0  0  0  0  0  0  0  0
   16.3790   34.6310   34.5040 N   0  0  0  0  0  0  0  0  0  0  0  0
   15.9002   35.1934   36.8088 N   0  0  0  0  0  0  0  0  0  0  0  0
    9.0442   45.4723   33.7345 H   0  0  0  0  0  0  0  0  0  0  0  0
   10.7421   47.0071   33.3068 H   0  0  0  0  0  0  0  0  0  0  0  0
   11.8657   45.8304   32.8569 H   0  0  0  0  0  0  0  0  0  0  0  0
   10.5973   44.6019   31.1891 H   0  0  0  0  0  0  0  0  0  0  0  0
    8.8903   44.2195   31.5379 H   0  0  0  0  0  0  0  0  0  0  0  0
   11.1810   46.7887   30.2960 H   0  0  0  0  0  0  0  0  0  0  0  0
    7.2028   46.1071   31.8109 H   0  0  0  0  0  0  0  0  0  0  0  0
   10.4498   48.9414   29.3542 H   0  0  0  0  0  0  0  0  0  0  0  0
    6.4747   48.2480   30.8759 H   0  0  0  0  0  0  0  0  0  0  0  0
    6.4619   50.7150   30.6261 H   0  0  0  0  0  0  0  0  0  0  0  0
    6.7392   51.5338   29.0433 H   0  0  0  0  0  0  0  0  0  0  0  0
    6.0099   49.8845   29.0698 H   0  0  0  0  0  0  0  0  0  0  0  0
   11.3961   41.5450   31.4711 H   0  0  0  0  0  0  0  0  0  0  0  0
    9.8291   40.7380   31.7564 H   0  0  0  0  0  0  0  0  0  0  0  0
   11.6998   39.5053   30.3477 H   0  0  0  0  0  0  0  0  0  0  0  0
   10.1099   38.2622   32.6635 H   0  0  0  0  0  0  0  0  0  0  0  0
   13.6694   37.4596   31.2222 H   0  0  0  0  0  0  0  0  0  0  0  0
    8.9002   38.6890   30.8807 H   0  0  0  0  0  0  0  0  0  0  0  0
   11.2689   36.3074   32.5092 H   0  0  0  0  0  0  0  0  0  0  0  0
   12.1428   35.5155   30.6155 H   0  0  0  0  0  0  0  0  0  0  0  0
   12.3359   38.3594   34.7446 H   0  0  0  0  0  0  0  0  0  0  0  0
   16.7568   34.1790   32.4617 H   0  0  0  0  0  0  0  0  0  0  0  0
   15.3530   35.7356   37.5137 H   0  0  0  0  0  0  0  0  0  0  0  0
   16.6361   34.5315   37.1413 H   0  0  0  0  0  0  0  0  0  0  0  0
  1  2  2  0
  1  3  1  0
  3  4  1  0
  4  5  1  0
  6  1  1  0
  7  6  1  0
  6  8  1  0
  8  9  1  0
  9 10  2  0
 11  9  1  0
 10 12  1  0
 13 11  2  0
 12 14  2  0
 14 13  1  0
 14 15  1  0
 15 16  1  0
  4 17  2  0
  4 18  1  0
 19 18  1  0
 19 20  1  0
 20 21  1  0
 20 22  1  0
 21 23  1  0
 22 24  1  0
 22 25  1  0
 25 23  1  0
 23 26  1  0
 25 27  1  0
 28 26  1  0
 29 26  1  0
 30 28  2  0
 28 31  1  0
 32 29  2  0
 33 30  1  0
 31 34  2  0
 31 32  1  0
 35 33  2  0
 35 34  1  0
 34 36  1  0
  6 37  1  1
  7 38  1  0
  7 39  1  0
  8 40  1  0
  8 41  1  0
 10 42  1  0
 11 43  1  0
 12 44  1  0
 13 45  1  0
 16 46  1  0
 16 47  1  0
 16 48  1  0
 19 49  1  0
 19 50  1  0
 20 51  1  0
 22 52  1  0
 23 53  1  0
 24 54  1  0
 25 55  1  0
 27 56  1  0
 29 57  1  0
 33 58  1  0
 36 59  1  0
 36 60  1  0
M  CHG  1   5  -1
M  END
>  <EmbedRMS>  (51) 
0.08894134268603932

$$$$

     RDKit          3D

 60 63  0  0  0  0  0  0  0  0999 V2000
   10.2894   43.7709   33.7894 C   0  0  0  0  0  0  0  0  0  0  0  0
   11.4115   43.5887   34.3475 O   0  0  0  0  0  0  0  0  0  0  0  0
    9.3641   42.7335   33.7088 O   0  0  0  0  0  0  0  0  0  0  0  0
    9.8855   41.2349   34.2856 P   0  0  0  0  0  5  0  0  0  0  0  0
   10.3683   41.4680   35.8754 O   0  0  0  0  0  1  0  0  0  0  0  0
    9.9587   45.1134   33.2315 C   0  0  1  0  0  0  0  0  0  0  0  0
   11.0635   46.0339   33.5070 N   0  0  0  0  0  0  0  0  0  0  0  0
    9.6704   45.0604   31.7117 C   0  0  0  0  0  0  0  0  0  0  0  0
    8.4254   44.2746   31.3755 C   0  0  0  0  0  0  0  0  0  0  0  0
    7.1636   44.7278   31.7921 C   0  0  0  0  0  0  0  0  0  0  0  0
    8.5152   43.0839   30.6379 C   0  0  0  0  0  0  0  0  0  0  0  0
    6.0141   43.9869   31.5016 C   0  0  0  0  0  0  0  0  0  0  0  0
    7.3667   42.3420   30.3504 C   0  0  0  0  0  0  0  0  0  0  0  0
    6.1098   42.7818   30.7800 C   0  0  0  0  0  0  0  0  0  0  0  0
    4.9878   41.9992   30.4693 O   0  0  0  0  0  0  0  0  0  0  0  0
    3.6532   42.3232   30.8450 C   0  0  0  0  0  0  0  0  0  0  0  0
    8.8076   40.1923   34.2097 O   0  0  0  0  0  0  0  0  0  0  0  0
   11.2366   40.7917   33.3668 O   0  0  0  0  0  0  0  0  0  0  0  0
   10.9113   40.6823   31.9952 C   0  0  0  0  0  0  0  0  0  0  0  0
   11.5172   39.3771   31.4406 C   0  0  0  0  0  0  0  0  0  0  0  0
   12.7475   39.0870   32.0764 O   0  0  0  0  0  0  0  0  0  0  0  0
   10.6069   38.1846   31.6658 C   0  0  0  0  0  0  0  0  0  0  0  0
   12.9372   37.6812   32.0292 C   0  0  0  0  0  0  0  0  0  0  0  0
    9.6405   38.0884   30.6473 O   0  0  0  0  0  0  0  0  0  0  0  0
   11.5791   37.0132   31.7043 C   0  0  0  0  0  0  0  0  0  0  0  0
   13.4915   37.2181   33.3240 N   0  0  0  0  0  0  0  0  0  0  0  0
   11.6128   36.3390   30.4670 O   0  0  0  0  0  0  0  0  0  0  0  0
   14.4766   36.3271   33.5731 C   0  0  0  0  0  0  0  0  0  0  0  0
   13.1184   37.6316   34.5691 C   0  0  0  0  0  0  0  0  0  0  0  0
   15.2066   35.6139   32.6741 N   0  0  0  0  0  0  0  0  0  0  0  0
   14.6735   36.2273   34.9184 C   0  0  0  0  0  0  0  0  0  0  0  0
   13.8228   37.0455   35.5785 N   0  0  0  0  0  0  0  0  0  0  0  0
   16.1638   34.7593   33.1548 C   0  0  0  0  0  0  0  0  0  0  0  0
   15.6517   35.3490   35.4132 C   0  0  0  0  0  0  0  0  0  0  0  0
   16.3793   34.6308   34.5043 N   0  0  0  0  0  0  0  0  0  0  0  0
   15.9004   35.1932   36.8090 N   0  0  0  0  0  0  0  0  0  0  0  0
    9.0577   45.4862   33.7659 H   0  0  0  0  0  0  0  0  0  0  0  0
   11.8782   45.8017   32.8917 H   0  0  0  0  0  0  0  0  0  0  0  0
   10.7585   47.0044   33.2629 H   0  0  0  0  0  0  0  0  0  0  0  0
    9.5342   46.0959   31.3308 H   0  0  0  0  0  0  0  0  0  0  0  0
   10.5539   44.6382   31.1830 H   0  0  0  0  0  0  0  0  0  0  0  0
    7.0698   45.6537   32.3456 H   0  0  0  0  0  0  0  0  0  0  0  0
    9.4742   42.7270   30.2862 H   0  0  0  0  0  0  0  0  0  0  0  0
    5.0578   44.3591   31.8427 H   0  0  0  0  0  0  0  0  0  0  0  0
    7.4539   41.4198   29.7899 H   0  0  0  0  0  0  0  0  0  0  0  0
    3.3543   43.2930   30.3941 H   0  0  0  0  0  0  0  0  0  0  0  0
    3.5696   42.3738   31.9512 H   0  0  0  0  0  0  0  0  0  0  0  0
    2.9698   41.5328   30.4728 H   0  0  0  0  0  0  0  0  0  0  0  0
   11.3781   41.5406   31.4667 H   0  0  0  0  0  0  0  0  0  0  0  0
    9.8203   40.7066   31.7643 H   0  0  0  0  0  0  0  0  0  0  0  0
   11.7000   39.5029   30.3483 H   0  0  0  0  0  0  0  0  0  0  0  0
   10.1095   38.2738   32.6606 H   0  0  0  0  0  0  0  0  0  0  0  0
   13.6715   37.4597   31.2229 H   0  0  0  0  0  0  0  0  0  0  0  0
    9.0017   37.3856   30.9355 H   0  0  0  0  0  0  0  0  0  0  0  0
   11.2709   36.3044   32.5085 H   0  0  0  0  0  0  0  0  0  0  0  0
   12.1450   35.5139   30.6135 H   0  0  0  0  0  0  0  0  0  0  0  0
   12.3362   38.3592   34.7445 H   0  0  0  0  0  0  0  0  0  0  0  0
   16.7571   34.1787   32.4620 H   0  0  0  0  0  0  0  0  0  0  0  0
   16.6363   34.5314   37.1415 H   0  0  0  0  0  0  0  0  0  0  0  0
   15.3532   35.7355   37.5139 H   0  0  0  0  0  0  0  0  0  0  0  0
  1  2  2  0
  1  3  1  0
  3  4  1  0
  4  5  1  0
  6  1  1  0
  7  6  1  0
  6  8  1  0
  8  9  1  0
  9 10  2  0
 11  9  1  0
 10 12  1  0
 13 11  2  0
 12 14  2  0
 14 13  1  0
 14 15  1  0
 15 16  1  0
  4 17  2  0
  4 18  1  0
 19 18  1  0
 19 20  1  0
 20 21  1  0
 20 22  1  0
 21 23  1  0
 22 24  1  0
 22 25  1  0
 25 23  1  0
 23 26  1  0
 25 27  1  0
 28 26  1  0
 29 26  1  0
 30 28  2  0
 28 31  1  0
 32 29  2  0
 33 30  1  0
 31 34  2  0
 31 32  1  0
 35 33  2  0
 35 34  1  0
 34 36  1  0
  6 37  1  1
  7 38  1  0
  7 39  1  0
  8 40  1  0
  8 41  1  0
 10 42  1  0
 11 43  1  0
 12 44  1  0
 13 45  1  0
 16 46  1  0
 16 47  1  0
 16 48  1  0
 19 49  1  0
 19 50  1  0
 20 51  1  0
 22 52  1  0
 23 53  1  0
 24 54  1  0
 25 55  1  0
 27 56  1  0
 29 57  1  0
 33 58  1  0
 36 59  1  0
 36 60  1  0
M  CHG  1   5  -1
M  END
>  <EmbedRMS>  (52) 
0.08903625223159002

$$$$

     RDKit          3D

 60 63  0  0  0  0  0  0  0  0999 V2000
   10.2879   43.7719   33.8024 C   0  0  0  0  0  0  0  0  0  0  0  0
   11.4129   43.5865   34.3533 O   0  0  0  0  0  0  0  0  0  0  0  0
    9.3630   42.7346   33.7125 O   0  0  0  0  0  0  0  0  0  0  0  0
    9.8845   41.2350   34.2871 P   0  0  0  0  0  5  0  0  0  0  0  0
   10.3676   41.4666   35.8770 O   0  0  0  0  0  1  0  0  0  0  0  0
    9.9689   45.1018   33.2140 C   0  0  1  0  0  0  0  0  0  0  0  0
   11.0575   46.0377   33.5062 N   0  0  0  0  0  0  0  0  0  0  0  0
    9.7792   44.9514   31.6901 C   0  0  0  0  0  0  0  0  0  0  0  0
    9.2566   46.2166   31.0581 C   0  0  0  0  0  0  0  0  0  0  0  0
    7.9014   46.5592   31.1821 C   0  0  0  0  0  0  0  0  0  0  0  0
   10.1215   47.0773   30.3644 C   0  0  0  0  0  0  0  0  0  0  0  0
    7.4155   47.7406   30.6140 C   0  0  0  0  0  0  0  0  0  0  0  0
    9.6353   48.2584   29.7968 C   0  0  0  0  0  0  0  0  0  0  0  0
    8.2833   48.6009   29.9144 C   0  0  0  0  0  0  0  0  0  0  0  0
    7.8450   49.7971   29.3270 O   0  0  0  0  0  0  0  0  0  0  0  0
    6.5021   50.2683   29.3693 C   0  0  0  0  0  0  0  0  0  0  0  0
    8.8077   40.1915   34.2099 O   0  0  0  0  0  0  0  0  0  0  0  0
   11.2361   40.7939   33.3686 O   0  0  0  0  0  0  0  0  0  0  0  0
   10.9135   40.6910   31.9961 C   0  0  0  0  0  0  0  0  0  0  0  0
   11.5261   39.3907   31.4379 C   0  0  0  0  0  0  0  0  0  0  0  0
   12.7500   39.0925   32.0846 O   0  0  0  0  0  0  0  0  0  0  0  0
   10.6118   38.1920   31.6452 C   0  0  0  0  0  0  0  0  0  0  0  0
   12.9426   37.6860   32.0297 C   0  0  0  0  0  0  0  0  0  0  0  0
    9.6068   38.0860   30.6601 O   0  0  0  0  0  0  0  0  0  0  0  0
   11.5844   37.0191   31.6880 C   0  0  0  0  0  0  0  0  0  0  0  0
   13.4898   37.2167   33.3250 N   0  0  0  0  0  0  0  0  0  0  0  0
   11.6202   36.3067   30.4694 O   0  0  0  0  0  0  0  0  0  0  0  0
   14.4758   36.3265   33.5738 C   0  0  0  0  0  0  0  0  0  0  0  0
   13.1175   37.6309   34.5700 C   0  0  0  0  0  0  0  0  0  0  0  0
   15.2064   35.6140   32.6745 N   0  0  0  0  0  0  0  0  0  0  0  0
   14.6730   36.2268   34.9190 C   0  0  0  0  0  0  0  0  0  0  0  0
   13.8224   37.0450   35.5792 N   0  0  0  0  0  0  0  0  0  0  0  0
   16.1639   34.7597   33.1550 C   0  0  0  0  0  0  0  0  0  0  0  0
   15.6517   35.3489   35.4135 C   0  0  0  0  0  0  0  0  0  0  0  0
   16.3794   34.6310   34.5045 N   0  0  0  0  0  0  0  0  0  0  0  0
   15.9006   35.1931   36.8093 N   0  0  0  0  0  0  0  0  0  0  0  0
    9.0244   45.4686   33.6760 H   0  0  0  0  0  0  0  0  0  0  0  0
   11.1201   46.1579   34.5442 H   0  0  0  0  0  0  0  0  0  0  0  0
   10.7941   46.9817   33.1427 H   0  0  0  0  0  0  0  0  0  0  0  0
    9.0544   44.1341   31.4784 H   0  0  0  0  0  0  0  0  0  0  0  0
   10.7433   44.6524   31.2212 H   0  0  0  0  0  0  0  0  0  0  0  0
    7.2214   45.9105   31.7205 H   0  0  0  0  0  0  0  0  0  0  0  0
   11.1729   46.8367   30.2664 H   0  0  0  0  0  0  0  0  0  0  0  0
    6.3660   47.9759   30.7257 H   0  0  0  0  0  0  0  0  0  0  0  0
   10.3134   48.9130   29.2639 H   0  0  0  0  0  0  0  0  0  0  0  0
    6.1874   50.4307   30.4219 H   0  0  0  0  0  0  0  0  0  0  0  0
    6.4393   51.2337   28.8268 H   0  0  0  0  0  0  0  0  0  0  0  0
    5.8257   49.5385   28.8761 H   0  0  0  0  0  0  0  0  0  0  0  0
   11.3783   41.5542   31.4733 H   0  0  0  0  0  0  0  0  0  0  0  0
    9.8230   40.7194   31.7605 H   0  0  0  0  0  0  0  0  0  0  0  0
   11.7312   39.5348   30.3526 H   0  0  0  0  0  0  0  0  0  0  0  0
   10.1208   38.2684   32.6412 H   0  0  0  0  0  0  0  0  0  0  0  0
   13.6880   37.4721   31.2319 H   0  0  0  0  0  0  0  0  0  0  0  0
   10.0256   38.1758   29.7656 H   0  0  0  0  0  0  0  0  0  0  0  0
   11.2795   36.3128   32.4916 H   0  0  0  0  0  0  0  0  0  0  0  0
   11.9871   36.9104   29.7715 H   0  0  0  0  0  0  0  0  0  0  0  0
   12.3366   38.3597   34.7455 H   0  0  0  0  0  0  0  0  0  0  0  0
   16.7575   34.1795   32.4621 H   0  0  0  0  0  0  0  0  0  0  0  0
   16.6368   34.5316   37.1417 H   0  0  0  0  0  0  0  0  0  0  0  0
   15.3532   35.7351   37.5143 H   0  0  0  0  0  0  0  0  0  0  0  0
  1  2  2  0
  1  3  1  0
  3  4  1  0
  4  5  1  0
  6  1  1  0
  7  6  1  0
  6  8  1  0
  8  9  1  0
  9 10  2  0
 11  9  1  0
 10 12  1  0
 13 11  2  0
 12 14  2  0
 14 13  1  0
 14 15  1  0
 15 16  1  0
  4 17  2  0
  4 18  1  0
 19 18  1  0
 19 20  1  0
 20 21  1  0
 20 22  1  0
 21 23  1  0
 22 24  1  0
 22 25  1  0
 25 23  1  0
 23 26  1  0
 25 27  1  0
 28 26  1  0
 29 26  1  0
 30 28  2  0
 28 31  1  0
 32 29  2  0
 33 30  1  0
 31 34  2  0
 31 32  1  0
 35 33  2  0
 35 34  1  0
 34 36  1  0
  6 37  1  1
  7 38  1  0
  7 39  1  0
  8 40  1  0
  8 41  1  0
 10 42  1  0
 11 43  1  0
 12 44  1  0
 13 45  1  0
 16 46  1  0
 16 47  1  0
 16 48  1  0
 19 49  1  0
 19 50  1  0
 20 51  1  0
 22 52  1  0
 23 53  1  0
 24 54  1  0
 25 55  1  0
 27 56  1  0
 29 57  1  0
 33 58  1  0
 36 59  1  0
 36 60  1  0
M  CHG  1   5  -1
M  END
>  <EmbedRMS>  (53) 
0.08692884483499719

$$$$

     RDKit          3D

 60 63  0  0  0  0  0  0  0  0999 V2000
   10.2905   43.7682   33.8032 C   0  0  0  0  0  0  0  0  0  0  0  0
   11.4118   43.5808   34.3603 O   0  0  0  0  0  0  0  0  0  0  0  0
    9.3644   42.7327   33.7097 O   0  0  0  0  0  0  0  0  0  0  0  0
    9.8841   41.2332   34.2863 P   0  0  0  0  0  5  0  0  0  0  0  0
   10.3658   41.4657   35.8766 O   0  0  0  0  0  1  0  0  0  0  0  0
    9.9696   45.1049   33.2284 C   0  0  1  0  0  0  0  0  0  0  0  0
   11.0569   46.0521   33.4894 N   0  0  0  0  0  0  0  0  0  0  0  0
    9.7164   44.9858   31.7146 C   0  0  0  0  0  0  0  0  0  0  0  0
    9.2965   46.3068   31.1226 C   0  0  0  0  0  0  0  0  0  0  0  0
    7.9603   46.7264   31.2088 C   0  0  0  0  0  0  0  0  0  0  0  0
   10.2436   47.1497   30.5207 C   0  0  0  0  0  0  0  0  0  0  0  0
    7.5742   47.9633   30.6850 C   0  0  0  0  0  0  0  0  0  0  0  0
    9.8570   48.3871   29.9971 C   0  0  0  0  0  0  0  0  0  0  0  0
    8.5139   48.8027   30.0753 C   0  0  0  0  0  0  0  0  0  0  0  0
    8.0761   50.0339   29.5652 O   0  0  0  0  0  0  0  0  0  0  0  0
    8.9203   50.9835   28.9227 C   0  0  0  0  0  0  0  0  0  0  0  0
    8.8071   40.1902   34.2084 O   0  0  0  0  0  0  0  0  0  0  0  0
   11.2370   40.7923   33.3696 O   0  0  0  0  0  0  0  0  0  0  0  0
   10.9175   40.6914   31.9963 C   0  0  0  0  0  0  0  0  0  0  0  0
   11.5169   39.3831   31.4415 C   0  0  0  0  0  0  0  0  0  0  0  0
   12.7489   39.0899   32.0760 O   0  0  0  0  0  0  0  0  0  0  0  0
   10.6033   38.1903   31.6659 C   0  0  0  0  0  0  0  0  0  0  0  0
   12.9399   37.6839   32.0277 C   0  0  0  0  0  0  0  0  0  0  0  0
    9.6375   38.0787   30.6473 O   0  0  0  0  0  0  0  0  0  0  0  0
   11.5803   37.0208   31.6937 C   0  0  0  0  0  0  0  0  0  0  0  0
   13.4901   37.2180   33.3237 N   0  0  0  0  0  0  0  0  0  0  0  0
   11.6118   36.3196   30.4681 O   0  0  0  0  0  0  0  0  0  0  0  0
   14.4758   36.3273   33.5730 C   0  0  0  0  0  0  0  0  0  0  0  0
   13.1175   37.6319   34.5688 C   0  0  0  0  0  0  0  0  0  0  0  0
   15.2063   35.6143   32.6741 N   0  0  0  0  0  0  0  0  0  0  0  0
   14.6729   36.2275   34.9184 C   0  0  0  0  0  0  0  0  0  0  0  0
   13.8221   37.0458   35.5783 N   0  0  0  0  0  0  0  0  0  0  0  0
   16.1636   34.7597   33.1548 C   0  0  0  0  0  0  0  0  0  0  0  0
   15.6513   35.3493   35.4132 C   0  0  0  0  0  0  0  0  0  0  0  0
   16.3790   34.6312   34.5043 N   0  0  0  0  0  0  0  0  0  0  0  0
   15.9001   35.1935   36.8090 N   0  0  0  0  0  0  0  0  0  0  0  0
    9.0440   45.4765   33.7210 H   0  0  0  0  0  0  0  0  0  0  0  0
   11.9530   45.6972   33.0806 H   0  0  0  0  0  0  0  0  0  0  0  0
   11.1828   46.1618   34.5225 H   0  0  0  0  0  0  0  0  0  0  0  0
    8.9151   44.2373   31.5255 H   0  0  0  0  0  0  0  0  0  0  0  0
   10.6324   44.6106   31.2058 H   0  0  0  0  0  0  0  0  0  0  0  0
    7.2184   46.0957   31.6831 H   0  0  0  0  0  0  0  0  0  0  0  0
   11.2825   46.8498   30.4588 H   0  0  0  0  0  0  0  0  0  0  0  0
    6.5392   48.2731   30.7555 H   0  0  0  0  0  0  0  0  0  0  0  0
   10.6093   49.0129   29.5369 H   0  0  0  0  0  0  0  0  0  0  0  0
    9.7138   51.3233   29.6214 H   0  0  0  0  0  0  0  0  0  0  0  0
    9.3764   50.5360   28.0144 H   0  0  0  0  0  0  0  0  0  0  0  0
    8.3138   51.8615   28.6200 H   0  0  0  0  0  0  0  0  0  0  0  0
    9.8295   40.7405   31.7568 H   0  0  0  0  0  0  0  0  0  0  0  0
   11.3973   41.5468   31.4743 H   0  0  0  0  0  0  0  0  0  0  0  0
   11.6985   39.5100   30.3493 H   0  0  0  0  0  0  0  0  0  0  0  0
   10.1126   38.2591   32.6662 H   0  0  0  0  0  0  0  0  0  0  0  0
   13.6798   37.4636   31.2265 H   0  0  0  0  0  0  0  0  0  0  0  0
    8.8955   38.6917   30.8884 H   0  0  0  0  0  0  0  0  0  0  0  0
   11.2830   36.3064   32.4930 H   0  0  0  0  0  0  0  0  0  0  0  0
   11.8858   36.9592   29.7593 H   0  0  0  0  0  0  0  0  0  0  0  0
   12.3360   38.3601   34.7442 H   0  0  0  0  0  0  0  0  0  0  0  0
   16.7571   34.1793   32.4620 H   0  0  0  0  0  0  0  0  0  0  0  0
   15.3528   35.7357   37.5139 H   0  0  0  0  0  0  0  0  0  0  0  0
   16.6361   34.5318   37.1415 H   0  0  0  0  0  0  0  0  0  0  0  0
  1  2  2  0
  1  3  1  0
  3  4  1  0
  4  5  1  0
  6  1  1  0
  7  6  1  0
  6  8  1  0
  8  9  1  0
  9 10  2  0
 11  9  1  0
 10 12  1  0
 13 11  2  0
 12 14  2  0
 14 13  1  0
 14 15  1  0
 15 16  1  0
  4 17  2  0
  4 18  1  0
 19 18  1  0
 19 20  1  0
 20 21  1  0
 20 22  1  0
 21 23  1  0
 22 24  1  0
 22 25  1  0
 25 23  1  0
 23 26  1  0
 25 27  1  0
 28 26  1  0
 29 26  1  0
 30 28  2  0
 28 31  1  0
 32 29  2  0
 33 30  1  0
 31 34  2  0
 31 32  1  0
 35 33  2  0
 35 34  1  0
 34 36  1  0
  6 37  1  1
  7 38  1  0
  7 39  1  0
  8 40  1  0
  8 41  1  0
 10 42  1  0
 11 43  1  0
 12 44  1  0
 13 45  1  0
 16 46  1  0
 16 47  1  0
 16 48  1  0
 19 49  1  0
 19 50  1  0
 20 51  1  0
 22 52  1  0
 23 53  1  0
 24 54  1  0
 25 55  1  0
 27 56  1  0
 29 57  1  0
 33 58  1  0
 36 59  1  0
 36 60  1  0
M  CHG  1   5  -1
M  END
>  <EmbedRMS>  (54) 
0.0887443685325132

$$$$

     RDKit          3D

 60 63  0  0  0  0  0  0  0  0999 V2000
   10.2905   43.7681   33.8032 C   0  0  0  0  0  0  0  0  0  0  0  0
   11.4118   43.5808   34.3604 O   0  0  0  0  0  0  0  0  0  0  0  0
    9.3646   42.7325   33.7093 O   0  0  0  0  0  0  0  0  0  0  0  0
    9.8844   41.2330   34.2855 P   0  0  0  0  0  5  0  0  0  0  0  0
   10.3662   41.4654   35.8759 O   0  0  0  0  0  1  0  0  0  0  0  0
    9.9696   45.1049   33.2285 C   0  0  1  0  0  0  0  0  0  0  0  0
   11.0570   46.0521   33.4893 N   0  0  0  0  0  0  0  0  0  0  0  0
    9.7159   44.9860   31.7148 C   0  0  0  0  0  0  0  0  0  0  0  0
    9.2976   46.3073   31.1226 C   0  0  0  0  0  0  0  0  0  0  0  0
    7.9625   46.7302   31.2118 C   0  0  0  0  0  0  0  0  0  0  0  0
   10.2451   47.1473   30.5174 C   0  0  0  0  0  0  0  0  0  0  0  0
    7.5762   47.9676   30.6882 C   0  0  0  0  0  0  0  0  0  0  0  0
    9.8584   48.3843   29.9940 C   0  0  0  0  0  0  0  0  0  0  0  0
    8.5258   48.8054   30.0724 C   0  0  0  0  0  0  0  0  0  0  0  0
    8.1887   50.0552   29.5319 O   0  0  0  0  0  0  0  0  0  0  0  0
    6.8765   50.6079   29.5427 C   0  0  0  0  0  0  0  0  0  0  0  0
    8.8071   40.1901   34.2080 O   0  0  0  0  0  0  0  0  0  0  0  0
   11.2372   40.7918   33.3683 O   0  0  0  0  0  0  0  0  0  0  0  0
   10.9174   40.6897   31.9948 C   0  0  0  0  0  0  0  0  0  0  0  0
   11.5174   39.3807   31.4400 C   0  0  0  0  0  0  0  0  0  0  0  0
   12.7479   39.0882   32.0754 O   0  0  0  0  0  0  0  0  0  0  0  0
   10.6051   38.1878   31.6656 C   0  0  0  0  0  0  0  0  0  0  0  0
   12.9359   37.6822   32.0289 C   0  0  0  0  0  0  0  0  0  0  0  0
    9.6422   38.0740   30.6443 O   0  0  0  0  0  0  0  0  0  0  0  0
   11.5764   37.0162   31.7046 C   0  0  0  0  0  0  0  0  0  0  0  0
   13.4908   37.2185   33.3236 N   0  0  0  0  0  0  0  0  0  0  0  0
   11.6103   36.3402   30.4681 O   0  0  0  0  0  0  0  0  0  0  0  0
   14.4761   36.3275   33.5727 C   0  0  0  0  0  0  0  0  0  0  0  0
   13.1181   37.6319   34.5689 C   0  0  0  0  0  0  0  0  0  0  0  0
   15.2063   35.6142   32.6738 N   0  0  0  0  0  0  0  0  0  0  0  0
   14.6733   36.2276   34.9182 C   0  0  0  0  0  0  0  0  0  0  0  0
   13.8225   37.0457   35.5783 N   0  0  0  0  0  0  0  0  0  0  0  0
   16.1635   34.7595   33.1545 C   0  0  0  0  0  0  0  0  0  0  0  0
   15.6515   35.3492   35.4130 C   0  0  0  0  0  0  0  0  0  0  0  0
   16.3790   34.6310   34.5040 N   0  0  0  0  0  0  0  0  0  0  0  0
   15.9002   35.1934   36.8088 N   0  0  0  0  0  0  0  0  0  0  0  0
    9.0441   45.4766   33.7214 H   0  0  0  0  0  0  0  0  0  0  0  0
   11.9529   45.6970   33.0803 H   0  0  0  0  0  0  0  0  0  0  0  0
   11.1832   46.1616   34.5224 H   0  0  0  0  0  0  0  0  0  0  0  0
   10.6314   44.6094   31.2060 H   0  0  0  0  0  0  0  0  0  0  0  0
    8.9136   44.2385   31.5260 H   0  0  0  0  0  0  0  0  0  0  0  0
    7.2210   46.1011   31.6889 H   0  0  0  0  0  0  0  0  0  0  0  0
   11.2832   46.8458   30.4527 H   0  0  0  0  0  0  0  0  0  0  0  0
    6.5394   48.2639   30.7696 H   0  0  0  0  0  0  0  0  0  0  0  0
   10.5990   49.0212   29.5270 H   0  0  0  0  0  0  0  0  0  0  0  0
    6.1798   49.9483   28.9835 H   0  0  0  0  0  0  0  0  0  0  0  0
    6.8976   51.6015   29.0501 H   0  0  0  0  0  0  0  0  0  0  0  0
    6.5251   50.7367   30.5882 H   0  0  0  0  0  0  0  0  0  0  0  0
   11.3966   41.5449   31.4721 H   0  0  0  0  0  0  0  0  0  0  0  0
    9.8293   40.7381   31.7558 H   0  0  0  0  0  0  0  0  0  0  0  0
   11.6998   39.5053   30.3476 H   0  0  0  0  0  0  0  0  0  0  0  0
   10.1099   38.2621   32.6635 H   0  0  0  0  0  0  0  0  0  0  0  0
   13.6694   37.4595   31.2222 H   0  0  0  0  0  0  0  0  0  0  0  0
    8.9002   38.6889   30.8807 H   0  0  0  0  0  0  0  0  0  0  0  0
   11.2689   36.3073   32.5092 H   0  0  0  0  0  0  0  0  0  0  0  0
   12.1429   35.5155   30.6155 H   0  0  0  0  0  0  0  0  0  0  0  0
   12.3359   38.3595   34.7446 H   0  0  0  0  0  0  0  0  0  0  0  0
   16.7568   34.1790   32.4617 H   0  0  0  0  0  0  0  0  0  0  0  0
   16.6361   34.5315   37.1413 H   0  0  0  0  0  0  0  0  0  0  0  0
   15.3530   35.7357   37.5137 H   0  0  0  0  0  0  0  0  0  0  0  0
  1  2  2  0
  1  3  1  0
  3  4  1  0
  4  5  1  0
  6  1  1  0
  7  6  1  0
  6  8  1  0
  8  9  1  0
  9 10  2  0
 11  9  1  0
 10 12  1  0
 13 11  2  0
 12 14  2  0
 14 13  1  0
 14 15  1  0
 15 16  1  0
  4 17  2  0
  4 18  1  0
 19 18  1  0
 19 20  1  0
 20 21  1  0
 20 22  1  0
 21 23  1  0
 22 24  1  0
 22 25  1  0
 25 23  1  0
 23 26  1  0
 25 27  1  0
 28 26  1  0
 29 26  1  0
 30 28  2  0
 28 31  1  0
 32 29  2  0
 33 30  1  0
 31 34  2  0
 31 32  1  0
 35 33  2  0
 35 34  1  0
 34 36  1  0
  6 37  1  1
  7 38  1  0
  7 39  1  0
  8 40  1  0
  8 41  1  0
 10 42  1  0
 11 43  1  0
 12 44  1  0
 13 45  1  0
 16 46  1  0
 16 47  1  0
 16 48  1  0
 19 49  1  0
 19 50  1  0
 20 51  1  0
 22 52  1  0
 23 53  1  0
 24 54  1  0
 25 55  1  0
 27 56  1  0
 29 57  1  0
 33 58  1  0
 36 59  1  0
 36 60  1  0
M  CHG  1   5  -1
M  END
>  <EmbedRMS>  (55) 
0.0897345000655272

$$$$

     RDKit          3D

 60 63  0  0  0  0  0  0  0  0999 V2000
   10.2940   43.7720   33.7965 C   0  0  0  0  0  0  0  0  0  0  0  0
   11.4140   43.5898   34.3580 O   0  0  0  0  0  0  0  0  0  0  0  0
    9.3670   42.7359   33.7091 O   0  0  0  0  0  0  0  0  0  0  0  0
    9.8867   41.2362   34.2853 P   0  0  0  0  0  5  0  0  0  0  0  0
   10.3693   41.4675   35.8755 O   0  0  0  0  0  1  0  0  0  0  0  0
    9.9760   45.1033   33.2100 C   0  0  1  0  0  0  0  0  0  0  0  0
   11.0440   46.0544   33.5250 N   0  0  0  0  0  0  0  0  0  0  0  0
    9.7486   45.0011   31.6779 C   0  0  0  0  0  0  0  0  0  0  0  0
   10.9942   45.2144   30.8391 C   0  0  0  0  0  0  0  0  0  0  0  0
   12.1339   44.4127   31.0156 C   0  0  0  0  0  0  0  0  0  0  0  0
   11.0100   46.2067   29.8443 C   0  0  0  0  0  0  0  0  0  0  0  0
   13.2681   44.6033   30.2214 C   0  0  0  0  0  0  0  0  0  0  0  0
   12.1444   46.3971   29.0503 C   0  0  0  0  0  0  0  0  0  0  0  0
   13.2803   45.6009   29.2293 C   0  0  0  0  0  0  0  0  0  0  0  0
   14.3930   45.8310   28.4067 O   0  0  0  0  0  0  0  0  0  0  0  0
   15.6111   45.0971   28.4787 C   0  0  0  0  0  0  0  0  0  0  0  0
    8.8092   40.1932   34.2083 O   0  0  0  0  0  0  0  0  0  0  0  0
   11.2378   40.7964   33.3649 O   0  0  0  0  0  0  0  0  0  0  0  0
   10.9098   40.6832   31.9940 C   0  0  0  0  0  0  0  0  0  0  0  0
   11.5144   39.3783   31.4417 C   0  0  0  0  0  0  0  0  0  0  0  0
   12.7467   39.0886   32.0768 O   0  0  0  0  0  0  0  0  0  0  0  0
   10.6026   38.1858   31.6664 C   0  0  0  0  0  0  0  0  0  0  0  0
   12.9398   37.6831   32.0279 C   0  0  0  0  0  0  0  0  0  0  0  0
    9.6370   38.0748   30.6475 O   0  0  0  0  0  0  0  0  0  0  0  0
   11.5810   37.0181   31.6934 C   0  0  0  0  0  0  0  0  0  0  0  0
   13.4902   37.2177   33.3239 N   0  0  0  0  0  0  0  0  0  0  0  0
   11.6130   36.3182   30.4672 O   0  0  0  0  0  0  0  0  0  0  0  0
   14.4759   36.3271   33.5732 C   0  0  0  0  0  0  0  0  0  0  0  0
   13.1176   37.6317   34.5689 C   0  0  0  0  0  0  0  0  0  0  0  0
   15.2064   35.6141   32.6742 N   0  0  0  0  0  0  0  0  0  0  0  0
   14.6730   36.2274   34.9185 C   0  0  0  0  0  0  0  0  0  0  0  0
   13.8222   37.0457   35.5784 N   0  0  0  0  0  0  0  0  0  0  0  0
   16.1637   34.7596   33.1549 C   0  0  0  0  0  0  0  0  0  0  0  0
   15.6514   35.3493   35.4133 C   0  0  0  0  0  0  0  0  0  0  0  0
   16.3791   34.6311   34.5044 N   0  0  0  0  0  0  0  0  0  0  0  0
   15.9002   35.1934   36.8091 N   0  0  0  0  0  0  0  0  0  0  0  0
    9.0287   45.4513   33.6813 H   0  0  0  0  0  0  0  0  0  0  0  0
   10.7869   46.9814   33.1135 H   0  0  0  0  0  0  0  0  0  0  0  0
   11.0603   46.2027   34.5610 H   0  0  0  0  0  0  0  0  0  0  0  0
    9.3010   44.0197   31.4077 H   0  0  0  0  0  0  0  0  0  0  0  0
    8.9858   45.7628   31.4039 H   0  0  0  0  0  0  0  0  0  0  0  0
   12.1568   43.6491   31.7769 H   0  0  0  0  0  0  0  0  0  0  0  0
   10.1440   46.8356   29.6797 H   0  0  0  0  0  0  0  0  0  0  0  0
   14.1294   43.9710   30.3883 H   0  0  0  0  0  0  0  0  0  0  0  0
   12.1401   47.1674   28.2894 H   0  0  0  0  0  0  0  0  0  0  0  0
   16.0711   45.2182   29.4822 H   0  0  0  0  0  0  0  0  0  0  0  0
   15.4221   44.0225   28.2718 H   0  0  0  0  0  0  0  0  0  0  0  0
   16.3152   45.4874   27.7157 H   0  0  0  0  0  0  0  0  0  0  0  0
    9.8202   40.7256   31.7606 H   0  0  0  0  0  0  0  0  0  0  0  0
   11.3797   41.5300   31.4573 H   0  0  0  0  0  0  0  0  0  0  0  0
   11.6963   39.5042   30.3492 H   0  0  0  0  0  0  0  0  0  0  0  0
   10.1122   38.2535   32.6671 H   0  0  0  0  0  0  0  0  0  0  0  0
   13.6803   37.4642   31.2269 H   0  0  0  0  0  0  0  0  0  0  0  0
    8.8899   38.6795   30.8939 H   0  0  0  0  0  0  0  0  0  0  0  0
   11.2848   36.3027   32.4921 H   0  0  0  0  0  0  0  0  0  0  0  0
   11.8874   36.9584   29.7591 H   0  0  0  0  0  0  0  0  0  0  0  0
   12.3360   38.3599   34.7443 H   0  0  0  0  0  0  0  0  0  0  0  0
   16.7572   34.1793   32.4621 H   0  0  0  0  0  0  0  0  0  0  0  0
   15.3529   35.7356   37.5140 H   0  0  0  0  0  0  0  0  0  0  0  0
   16.6362   34.5317   37.1416 H   0  0  0  0  0  0  0  0  0  0  0  0
  1  2  2  0
  1  3  1  0
  3  4  1  0
  4  5  1  0
  6  1  1  0
  7  6  1  0
  6  8  1  0
  8  9  1  0
  9 10  2  0
 11  9  1  0
 10 12  1  0
 13 11  2  0
 12 14  2  0
 14 13  1  0
 14 15  1  0
 15 16  1  0
  4 17  2  0
  4 18  1  0
 19 18  1  0
 19 20  1  0
 20 21  1  0
 20 22  1  0
 21 23  1  0
 22 24  1  0
 22 25  1  0
 25 23  1  0
 23 26  1  0
 25 27  1  0
 28 26  1  0
 29 26  1  0
 30 28  2  0
 28 31  1  0
 32 29  2  0
 33 30  1  0
 31 34  2  0
 31 32  1  0
 35 33  2  0
 35 34  1  0
 34 36  1  0
  6 37  1  1
  7 38  1  0
  7 39  1  0
  8 40  1  0
  8 41  1  0
 10 42  1  0
 11 43  1  0
 12 44  1  0
 13 45  1  0
 16 46  1  0
 16 47  1  0
 16 48  1  0
 19 49  1  0
 19 50  1  0
 20 51  1  0
 22 52  1  0
 23 53  1  0
 24 54  1  0
 25 55  1  0
 27 56  1  0
 29 57  1  0
 33 58  1  0
 36 59  1  0
 36 60  1  0
M  CHG  1   5  -1
M  END
>  <EmbedRMS>  (56) 
0.0890972347699537

$$$$

     RDKit          3D

 60 63  0  0  0  0  0  0  0  0999 V2000
   10.2880   43.7719   33.8024 C   0  0  0  0  0  0  0  0  0  0  0  0
   11.4130   43.5866   34.3534 O   0  0  0  0  0  0  0  0  0  0  0  0
    9.3633   42.7344   33.7124 O   0  0  0  0  0  0  0  0  0  0  0  0
    9.8849   41.2348   34.2870 P   0  0  0  0  0  5  0  0  0  0  0  0
   10.3672   41.4665   35.8771 O   0  0  0  0  0  1  0  0  0  0  0  0
    9.9689   45.1017   33.2140 C   0  0  1  0  0  0  0  0  0  0  0  0
   11.0575   46.0377   33.5061 N   0  0  0  0  0  0  0  0  0  0  0  0
    9.7791   44.9512   31.6902 C   0  0  0  0  0  0  0  0  0  0  0  0
    9.2564   46.2165   31.0581 C   0  0  0  0  0  0  0  0  0  0  0  0
    7.9012   46.5590   31.1822 C   0  0  0  0  0  0  0  0  0  0  0  0
   10.1212   47.0772   30.3643 C   0  0  0  0  0  0  0  0  0  0  0  0
    7.4152   47.7403   30.6140 C   0  0  0  0  0  0  0  0  0  0  0  0
    9.6349   48.2582   29.7967 C   0  0  0  0  0  0  0  0  0  0  0  0
    8.2829   48.6006   29.9144 C   0  0  0  0  0  0  0  0  0  0  0  0
    7.8446   49.7967   29.3270 O   0  0  0  0  0  0  0  0  0  0  0  0
    6.5016   50.2679   29.3694 C   0  0  0  0  0  0  0  0  0  0  0  0
    8.8082   40.1912   34.2091 O   0  0  0  0  0  0  0  0  0  0  0  0
   11.2374   40.7940   33.3694 O   0  0  0  0  0  0  0  0  0  0  0  0
   10.9170   40.6918   31.9963 C   0  0  0  0  0  0  0  0  0  0  0  0
   11.5167   39.3833   31.4417 C   0  0  0  0  0  0  0  0  0  0  0  0
   12.7487   39.0901   32.0762 O   0  0  0  0  0  0  0  0  0  0  0  0
   10.6032   38.1904   31.6660 C   0  0  0  0  0  0  0  0  0  0  0  0
   12.9398   37.6841   32.0278 C   0  0  0  0  0  0  0  0  0  0  0  0
    9.6375   38.0788   30.6473 O   0  0  0  0  0  0  0  0  0  0  0  0
   11.5802   37.0209   31.6937 C   0  0  0  0  0  0  0  0  0  0  0  0
   13.4901   37.2180   33.3237 N   0  0  0  0  0  0  0  0  0  0  0  0
   11.6118   36.3197   30.4681 O   0  0  0  0  0  0  0  0  0  0  0  0
   14.4758   36.3273   33.5730 C   0  0  0  0  0  0  0  0  0  0  0  0
   13.1176   37.6319   34.5689 C   0  0  0  0  0  0  0  0  0  0  0  0
   15.2063   35.6143   32.6741 N   0  0  0  0  0  0  0  0  0  0  0  0
   14.6729   36.2275   34.9184 C   0  0  0  0  0  0  0  0  0  0  0  0
   13.8221   37.0458   35.5783 N   0  0  0  0  0  0  0  0  0  0  0  0
   16.1636   34.7598   33.1548 C   0  0  0  0  0  0  0  0  0  0  0  0
   15.6513   35.3493   35.4132 C   0  0  0  0  0  0  0  0  0  0  0  0
   16.3790   34.6312   34.5043 N   0  0  0  0  0  0  0  0  0  0  0  0
   15.9001   35.1935   36.8090 N   0  0  0  0  0  0  0  0  0  0  0  0
    9.0244   45.4684   33.6761 H   0  0  0  0  0  0  0  0  0  0  0  0
   11.1201   46.1579   34.5441 H   0  0  0  0  0  0  0  0  0  0  0  0
   10.7940   46.9817   33.1426 H   0  0  0  0  0  0  0  0  0  0  0  0
    9.0543   44.1339   31.4785 H   0  0  0  0  0  0  0  0  0  0  0  0
   10.7432   44.6523   31.2212 H   0  0  0  0  0  0  0  0  0  0  0  0
    7.2212   45.9102   31.7207 H   0  0  0  0  0  0  0  0  0  0  0  0
   11.1726   46.8366   30.2662 H   0  0  0  0  0  0  0  0  0  0  0  0
    6.3656   47.9755   30.7258 H   0  0  0  0  0  0  0  0  0  0  0  0
   10.3129   48.9128   29.2637 H   0  0  0  0  0  0  0  0  0  0  0  0
    6.4388   51.2333   28.8268 H   0  0  0  0  0  0  0  0  0  0  0  0
    5.8251   49.5382   28.8763 H   0  0  0  0  0  0  0  0  0  0  0  0
    6.1870   50.4304   30.4220 H   0  0  0  0  0  0  0  0  0  0  0  0
    9.8288   40.7403   31.7576 H   0  0  0  0  0  0  0  0  0  0  0  0
   11.3960   41.5471   31.4734 H   0  0  0  0  0  0  0  0  0  0  0  0
   11.6984   39.5101   30.3495 H   0  0  0  0  0  0  0  0  0  0  0  0
   10.1124   38.2591   32.6663 H   0  0  0  0  0  0  0  0  0  0  0  0
   13.6798   37.4639   31.2266 H   0  0  0  0  0  0  0  0  0  0  0  0
    8.8954   38.6916   30.8884 H   0  0  0  0  0  0  0  0  0  0  0  0
   11.2830   36.3065   32.4930 H   0  0  0  0  0  0  0  0  0  0  0  0
   11.8858   36.9593   29.7594 H   0  0  0  0  0  0  0  0  0  0  0  0
   12.3361   38.3602   34.7443 H   0  0  0  0  0  0  0  0  0  0  0  0
   16.7571   34.1794   32.4620 H   0  0  0  0  0  0  0  0  0  0  0  0
   15.3528   35.7356   37.5139 H   0  0  0  0  0  0  0  0  0  0  0  0
   16.6362   34.5318   37.1415 H   0  0  0  0  0  0  0  0  0  0  0  0
  1  2  2  0
  1  3  1  0
  3  4  1  0
  4  5  1  0
  6  1  1  0
  7  6  1  0
  6  8  1  0
  8  9  1  0
  9 10  2  0
 11  9  1  0
 10 12  1  0
 13 11  2  0
 12 14  2  0
 14 13  1  0
 14 15  1  0
 15 16  1  0
  4 17  2  0
  4 18  1  0
 19 18  1  0
 19 20  1  0
 20 21  1  0
 20 22  1  0
 21 23  1  0
 22 24  1  0
 22 25  1  0
 25 23  1  0
 23 26  1  0
 25 27  1  0
 28 26  1  0
 29 26  1  0
 30 28  2  0
 28 31  1  0
 32 29  2  0
 33 30  1  0
 31 34  2  0
 31 32  1  0
 35 33  2  0
 35 34  1  0
 34 36  1  0
  6 37  1  1
  7 38  1  0
  7 39  1  0
  8 40  1  0
  8 41  1  0
 10 42  1  0
 11 43  1  0
 12 44  1  0
 13 45  1  0
 16 46  1  0
 16 47  1  0
 16 48  1  0
 19 49  1  0
 19 50  1  0
 20 51  1  0
 22 52  1  0
 23 53  1  0
 24 54  1  0
 25 55  1  0
 27 56  1  0
 29 57  1  0
 33 58  1  0
 36 59  1  0
 36 60  1  0
M  CHG  1   5  -1
M  END
>  <EmbedRMS>  (57) 
0.08825674680987029

$$$$

     RDKit          3D

 60 63  0  0  0  0  0  0  0  0999 V2000
   10.2876   43.7723   33.7999 C   0  0  0  0  0  0  0  0  0  0  0  0
   11.4102   43.5905   34.3570 O   0  0  0  0  0  0  0  0  0  0  0  0
    9.3642   42.7338   33.7094 O   0  0  0  0  0  0  0  0  0  0  0  0
    9.8855   41.2350   34.2863 P   0  0  0  0  0  5  0  0  0  0  0  0
   10.3672   41.4675   35.8766 O   0  0  0  0  0  1  0  0  0  0  0  0
    9.9623   45.1043   33.2248 C   0  0  1  0  0  0  0  0  0  0  0  0
   11.0639   46.0310   33.4992 N   0  0  0  0  0  0  0  0  0  0  0  0
    9.6874   44.9762   31.7101 C   0  0  0  0  0  0  0  0  0  0  0  0
    9.2401   46.2845   31.1102 C   0  0  0  0  0  0  0  0  0  0  0  0
    7.9154   46.7184   31.2713 C   0  0  0  0  0  0  0  0  0  0  0  0
   10.1503   47.0992   30.4191 C   0  0  0  0  0  0  0  0  0  0  0  0
    7.5026   47.9431   30.7383 C   0  0  0  0  0  0  0  0  0  0  0  0
    9.7372   48.3236   29.8866 C   0  0  0  0  0  0  0  0  0  0  0  0
    8.4149   48.7564   30.0390 C   0  0  0  0  0  0  0  0  0  0  0  0
    8.0502   49.9930   29.4861 O   0  0  0  0  0  0  0  0  0  0  0  0
    6.7446   50.5553   29.5660 C   0  0  0  0  0  0  0  0  0  0  0  0
    8.8086   40.1914   34.2089 O   0  0  0  0  0  0  0  0  0  0  0  0
   11.2379   40.7936   33.3693 O   0  0  0  0  0  0  0  0  0  0  0  0
   10.9175   40.6917   31.9962 C   0  0  0  0  0  0  0  0  0  0  0  0
   11.5169   39.3831   31.4416 C   0  0  0  0  0  0  0  0  0  0  0  0
   12.7489   39.0899   32.0761 O   0  0  0  0  0  0  0  0  0  0  0  0
   10.6033   38.1903   31.6660 C   0  0  0  0  0  0  0  0  0  0  0  0
   12.9399   37.6840   32.0277 C   0  0  0  0  0  0  0  0  0  0  0  0
    9.6375   38.0788   30.6473 O   0  0  0  0  0  0  0  0  0  0  0  0
   11.5802   37.0208   31.6937 C   0  0  0  0  0  0  0  0  0  0  0  0
   13.4901   37.2180   33.3237 N   0  0  0  0  0  0  0  0  0  0  0  0
   11.6118   36.3196   30.4681 O   0  0  0  0  0  0  0  0  0  0  0  0
   14.4758   36.3273   33.5730 C   0  0  0  0  0  0  0  0  0  0  0  0
   13.1175   37.6319   34.5688 C   0  0  0  0  0  0  0  0  0  0  0  0
   15.2063   35.6143   32.6741 N   0  0  0  0  0  0  0  0  0  0  0  0
   14.6729   36.2275   34.9184 C   0  0  0  0  0  0  0  0  0  0  0  0
   13.8221   37.0458   35.5783 N   0  0  0  0  0  0  0  0  0  0  0  0
   16.1636   34.7597   33.1548 C   0  0  0  0  0  0  0  0  0  0  0  0
   15.6513   35.3493   35.4132 C   0  0  0  0  0  0  0  0  0  0  0  0
   16.3790   34.6312   34.5043 N   0  0  0  0  0  0  0  0  0  0  0  0
   15.9001   35.1935   36.8090 N   0  0  0  0  0  0  0  0  0  0  0  0
    9.0443   45.4724   33.7348 H   0  0  0  0  0  0  0  0  0  0  0  0
   10.7422   47.0072   33.3068 H   0  0  0  0  0  0  0  0  0  0  0  0
   11.8656   45.8304   32.8567 H   0  0  0  0  0  0  0  0  0  0  0  0
   10.5968   44.6020   31.1891 H   0  0  0  0  0  0  0  0  0  0  0  0
    8.8899   44.2196   31.5382 H   0  0  0  0  0  0  0  0  0  0  0  0
    7.2027   46.1076   31.8118 H   0  0  0  0  0  0  0  0  0  0  0  0
   11.1805   46.7887   30.2958 H   0  0  0  0  0  0  0  0  0  0  0  0
    6.4746   48.2487   30.8773 H   0  0  0  0  0  0  0  0  0  0  0  0
   10.4493   48.9416   29.3544 H   0  0  0  0  0  0  0  0  0  0  0  0
    6.7391   51.5347   29.0452 H   0  0  0  0  0  0  0  0  0  0  0  0
    6.0095   49.8856   29.0717 H   0  0  0  0  0  0  0  0  0  0  0  0
    6.4622   50.7157   30.6279 H   0  0  0  0  0  0  0  0  0  0  0  0
   11.3967   41.5469   31.4733 H   0  0  0  0  0  0  0  0  0  0  0  0
    9.8293   40.7403   31.7573 H   0  0  0  0  0  0  0  0  0  0  0  0
   11.6985   39.5099   30.3493 H   0  0  0  0  0  0  0  0  0  0  0  0
   10.1125   38.2592   32.6663 H   0  0  0  0  0  0  0  0  0  0  0  0
   13.6798   37.4637   31.2265 H   0  0  0  0  0  0  0  0  0  0  0  0
    8.8955   38.6917   30.8885 H   0  0  0  0  0  0  0  0  0  0  0  0
   11.2830   36.3065   32.4930 H   0  0  0  0  0  0  0  0  0  0  0  0
   11.8858   36.9592   29.7594 H   0  0  0  0  0  0  0  0  0  0  0  0
   12.3360   38.3601   34.7443 H   0  0  0  0  0  0  0  0  0  0  0  0
   16.7571   34.1794   32.4620 H   0  0  0  0  0  0  0  0  0  0  0  0
   15.3528   35.7356   37.5139 H   0  0  0  0  0  0  0  0  0  0  0  0
   16.6361   34.5318   37.1415 H   0  0  0  0  0  0  0  0  0  0  0  0
  1  2  2  0
  1  3  1  0
  3  4  1  0
  4  5  1  0
  6  1  1  0
  7  6  1  0
  6  8  1  0
  8  9  1  0
  9 10  2  0
 11  9  1  0
 10 12  1  0
 13 11  2  0
 12 14  2  0
 14 13  1  0
 14 15  1  0
 15 16  1  0
  4 17  2  0
  4 18  1  0
 19 18  1  0
 19 20  1  0
 20 21  1  0
 20 22  1  0
 21 23  1  0
 22 24  1  0
 22 25  1  0
 25 23  1  0
 23 26  1  0
 25 27  1  0
 28 26  1  0
 29 26  1  0
 30 28  2  0
 28 31  1  0
 32 29  2  0
 33 30  1  0
 31 34  2  0
 31 32  1  0
 35 33  2  0
 35 34  1  0
 34 36  1  0
  6 37  1  1
  7 38  1  0
  7 39  1  0
  8 40  1  0
  8 41  1  0
 10 42  1  0
 11 43  1  0
 12 44  1  0
 13 45  1  0
 16 46  1  0
 16 47  1  0
 16 48  1  0
 19 49  1  0
 19 50  1  0
 20 51  1  0
 22 52  1  0
 23 53  1  0
 24 54  1  0
 25 55  1  0
 27 56  1  0
 29 57  1  0
 33 58  1  0
 36 59  1  0
 36 60  1  0
M  CHG  1   5  -1
M  END
>  <EmbedRMS>  (58) 
0.08793901346907307

$$$$

     RDKit          3D

 60 63  0  0  0  0  0  0  0  0999 V2000
   10.2890   43.7708   33.7903 C   0  0  0  0  0  0  0  0  0  0  0  0
   11.4141   43.5855   34.3415 O   0  0  0  0  0  0  0  0  0  0  0  0
    9.3633   42.7338   33.7098 O   0  0  0  0  0  0  0  0  0  0  0  0
    9.8849   41.2348   34.2858 P   0  0  0  0  0  5  0  0  0  0  0  0
   10.3679   41.4679   35.8756 O   0  0  0  0  0  1  0  0  0  0  0  0
    9.9601   45.1142   33.2288 C   0  0  1  0  0  0  0  0  0  0  0  0
   11.0608   46.0372   33.5111 N   0  0  0  0  0  0  0  0  0  0  0  0
    9.7253   45.0483   31.7022 C   0  0  0  0  0  0  0  0  0  0  0  0
    8.5128   44.2311   31.3220 C   0  0  0  0  0  0  0  0  0  0  0  0
    8.6549   43.0694   30.5475 C   0  0  0  0  0  0  0  0  0  0  0  0
    7.2285   44.6314   31.7246 C   0  0  0  0  0  0  0  0  0  0  0  0
    7.5372   42.2998   30.2149 C   0  0  0  0  0  0  0  0  0  0  0  0
    6.1098   43.8629   31.3891 C   0  0  0  0  0  0  0  0  0  0  0  0
    6.2587   42.6843   30.6335 C   0  0  0  0  0  0  0  0  0  0  0  0
    5.1694   41.8755   30.2776 O   0  0  0  0  0  0  0  0  0  0  0  0
    3.8181   42.1435   30.6375 C   0  0  0  0  0  0  0  0  0  0  0  0
    8.8072   40.1922   34.2098 O   0  0  0  0  0  0  0  0  0  0  0  0
   11.2364   40.7911   33.3677 O   0  0  0  0  0  0  0  0  0  0  0  0
   10.9124   40.6824   31.9958 C   0  0  0  0  0  0  0  0  0  0  0  0
   11.5173   39.3771   31.4409 C   0  0  0  0  0  0  0  0  0  0  0  0
   12.7477   39.0868   32.0763 O   0  0  0  0  0  0  0  0  0  0  0  0
   10.6069   38.1847   31.6659 C   0  0  0  0  0  0  0  0  0  0  0  0
   12.9372   37.6810   32.0292 C   0  0  0  0  0  0  0  0  0  0  0  0
    9.6406   38.0887   30.6474 O   0  0  0  0  0  0  0  0  0  0  0  0
   11.5790   37.0132   31.7044 C   0  0  0  0  0  0  0  0  0  0  0  0
   13.4914   37.2180   33.3240 N   0  0  0  0  0  0  0  0  0  0  0  0
   11.6126   36.3390   30.4671 O   0  0  0  0  0  0  0  0  0  0  0  0
   14.4766   36.3271   33.5731 C   0  0  0  0  0  0  0  0  0  0  0  0
   13.1184   37.6316   34.5691 C   0  0  0  0  0  0  0  0  0  0  0  0
   15.2066   35.6139   32.6741 N   0  0  0  0  0  0  0  0  0  0  0  0
   14.6735   36.2273   34.9185 C   0  0  0  0  0  0  0  0  0  0  0  0
   13.8228   37.0455   35.5786 N   0  0  0  0  0  0  0  0  0  0  0  0
   16.1638   34.7593   33.1548 C   0  0  0  0  0  0  0  0  0  0  0  0
   15.6517   35.3490   35.4132 C   0  0  0  0  0  0  0  0  0  0  0  0
   16.3793   34.6308   34.5043 N   0  0  0  0  0  0  0  0  0  0  0  0
   15.9004   35.1932   36.8091 N   0  0  0  0  0  0  0  0  0  0  0  0
    9.0408   45.4883   33.7320 H   0  0  0  0  0  0  0  0  0  0  0  0
   11.1225   46.1721   34.5474 H   0  0  0  0  0  0  0  0  0  0  0  0
   10.8138   46.9779   33.1256 H   0  0  0  0  0  0  0  0  0  0  0  0
    9.5741   46.0773   31.3096 H   0  0  0  0  0  0  0  0  0  0  0  0
   10.6399   44.6492   31.2094 H   0  0  0  0  0  0  0  0  0  0  0  0
    9.6310   42.7560   30.2014 H   0  0  0  0  0  0  0  0  0  0  0  0
    7.0924   45.5376   32.3012 H   0  0  0  0  0  0  0  0  0  0  0  0
    7.6652   41.3995   29.6273 H   0  0  0  0  0  0  0  0  0  0  0  0
    5.1354   44.1936   31.7216 H   0  0  0  0  0  0  0  0  0  0  0  0
    3.4951   43.1164   30.2104 H   0  0  0  0  0  0  0  0  0  0  0  0
    3.1684   41.3429   30.2287 H   0  0  0  0  0  0  0  0  0  0  0  0
    3.7130   42.1572   31.7429 H   0  0  0  0  0  0  0  0  0  0  0  0
   11.3825   41.5397   31.4689 H   0  0  0  0  0  0  0  0  0  0  0  0
    9.8219   40.7088   31.7636 H   0  0  0  0  0  0  0  0  0  0  0  0
   11.7000   39.5030   30.3486 H   0  0  0  0  0  0  0  0  0  0  0  0
   10.1094   38.2739   32.6608 H   0  0  0  0  0  0  0  0  0  0  0  0
   13.6715   37.4594   31.2229 H   0  0  0  0  0  0  0  0  0  0  0  0
    9.0015   37.3861   30.9357 H   0  0  0  0  0  0  0  0  0  0  0  0
   11.2708   36.3044   32.5085 H   0  0  0  0  0  0  0  0  0  0  0  0
   12.1447   35.5139   30.6136 H   0  0  0  0  0  0  0  0  0  0  0  0
   12.3361   38.3591   34.7445 H   0  0  0  0  0  0  0  0  0  0  0  0
   16.7571   34.1787   32.4620 H   0  0  0  0  0  0  0  0  0  0  0  0
   15.3532   35.7355   37.5139 H   0  0  0  0  0  0  0  0  0  0  0  0
   16.6363   34.5314   37.1416 H   0  0  0  0  0  0  0  0  0  0  0  0
  1  2  2  0
  1  3  1  0
  3  4  1  0
  4  5  1  0
  6  1  1  0
  7  6  1  0
  6  8  1  0
  8  9  1  0
  9 10  2  0
 11  9  1  0
 10 12  1  0
 13 11  2  0
 12 14  2  0
 14 13  1  0
 14 15  1  0
 15 16  1  0
  4 17  2  0
  4 18  1  0
 19 18  1  0
 19 20  1  0
 20 21  1  0
 20 22  1  0
 21 23  1  0
 22 24  1  0
 22 25  1  0
 25 23  1  0
 23 26  1  0
 25 27  1  0
 28 26  1  0
 29 26  1  0
 30 28  2  0
 28 31  1  0
 32 29  2  0
 33 30  1  0
 31 34  2  0
 31 32  1  0
 35 33  2  0
 35 34  1  0
 34 36  1  0
  6 37  1  1
  7 38  1  0
  7 39  1  0
  8 40  1  0
  8 41  1  0
 10 42  1  0
 11 43  1  0
 12 44  1  0
 13 45  1  0
 16 46  1  0
 16 47  1  0
 16 48  1  0
 19 49  1  0
 19 50  1  0
 20 51  1  0
 22 52  1  0
 23 53  1  0
 24 54  1  0
 25 55  1  0
 27 56  1  0
 29 57  1  0
 33 58  1  0
 36 59  1  0
 36 60  1  0
M  CHG  1   5  -1
M  END
>  <EmbedRMS>  (59) 
0.08930876347622937

$$$$

     RDKit          3D

 60 63  0  0  0  0  0  0  0  0999 V2000
   10.2941   43.7720   33.7963 C   0  0  0  0  0  0  0  0  0  0  0  0
   11.4141   43.5897   34.3578 O   0  0  0  0  0  0  0  0  0  0  0  0
    9.3669   42.7360   33.7090 O   0  0  0  0  0  0  0  0  0  0  0  0
    9.8866   41.2362   34.2849 P   0  0  0  0  0  5  0  0  0  0  0  0
   10.3701   41.4675   35.8749 O   0  0  0  0  0  1  0  0  0  0  0  0
    9.9764   45.1031   33.2093 C   0  0  1  0  0  0  0  0  0  0  0  0
   11.0437   46.0546   33.5256 N   0  0  0  0  0  0  0  0  0  0  0  0
    9.7515   45.0003   31.6769 C   0  0  0  0  0  0  0  0  0  0  0  0
   10.9980   45.2167   30.8403 C   0  0  0  0  0  0  0  0  0  0  0  0
   12.1375   44.4146   31.0156 C   0  0  0  0  0  0  0  0  0  0  0  0
   11.0156   46.2137   29.8500 C   0  0  0  0  0  0  0  0  0  0  0  0
   13.2721   44.6104   30.2239 C   0  0  0  0  0  0  0  0  0  0  0  0
   12.1510   46.4094   29.0581 C   0  0  0  0  0  0  0  0  0  0  0  0
   13.2911   45.6052   29.2410 C   0  0  0  0  0  0  0  0  0  0  0  0
   14.4543   45.7617   28.4727 O   0  0  0  0  0  0  0  0  0  0  0  0
   14.6121   46.7310   27.4417 C   0  0  0  0  0  0  0  0  0  0  0  0
    8.8087   40.1934   34.2089 O   0  0  0  0  0  0  0  0  0  0  0  0
   11.2365   40.7958   33.3631 O   0  0  0  0  0  0  0  0  0  0  0  0
   10.9058   40.6807   31.9928 C   0  0  0  0  0  0  0  0  0  0  0  0
   11.5230   39.3831   31.4369 C   0  0  0  0  0  0  0  0  0  0  0  0
   12.7463   39.0887   32.0832 O   0  0  0  0  0  0  0  0  0  0  0  0
   10.6114   38.1851   31.6464 C   0  0  0  0  0  0  0  0  0  0  0  0
   12.9371   37.6825   32.0304 C   0  0  0  0  0  0  0  0  0  0  0  0
    9.6141   38.0802   30.6540 O   0  0  0  0  0  0  0  0  0  0  0  0
   11.5800   37.0113   31.7010 C   0  0  0  0  0  0  0  0  0  0  0  0
   13.4907   37.2169   33.3244 N   0  0  0  0  0  0  0  0  0  0  0  0
   11.6231   36.3241   30.4717 O   0  0  0  0  0  0  0  0  0  0  0  0
   14.4764   36.3266   33.5732 C   0  0  0  0  0  0  0  0  0  0  0  0
   13.1182   37.6308   34.5695 C   0  0  0  0  0  0  0  0  0  0  0  0
   15.2065   35.6137   32.6740 N   0  0  0  0  0  0  0  0  0  0  0  0
   14.6736   36.2270   34.9185 C   0  0  0  0  0  0  0  0  0  0  0  0
   13.8229   37.0450   35.5788 N   0  0  0  0  0  0  0  0  0  0  0  0
   16.1639   34.7593   33.1547 C   0  0  0  0  0  0  0  0  0  0  0  0
   15.6519   35.3489   35.4132 C   0  0  0  0  0  0  0  0  0  0  0  0
   16.3795   34.6308   34.5042 N   0  0  0  0  0  0  0  0  0  0  0  0
   15.9006   35.1930   36.8090 N   0  0  0  0  0  0  0  0  0  0  0  0
    9.0283   45.4508   33.6791 H   0  0  0  0  0  0  0  0  0  0  0  0
   10.7866   46.9816   33.1141 H   0  0  0  0  0  0  0  0  0  0  0  0
   11.0589   46.2026   34.5617 H   0  0  0  0  0  0  0  0  0  0  0  0
    9.3068   44.0178   31.4059 H   0  0  0  0  0  0  0  0  0  0  0  0
    8.9872   45.7600   31.4015 H   0  0  0  0  0  0  0  0  0  0  0  0
   12.1599   43.6475   31.7734 H   0  0  0  0  0  0  0  0  0  0  0  0
   10.1493   46.8429   29.6875 H   0  0  0  0  0  0  0  0  0  0  0  0
   14.1433   43.9859   30.3765 H   0  0  0  0  0  0  0  0  0  0  0  0
   12.1309   47.1867   28.3065 H   0  0  0  0  0  0  0  0  0  0  0  0
   13.8602   46.5634   26.6418 H   0  0  0  0  0  0  0  0  0  0  0  0
   14.5042   47.7541   27.8598 H   0  0  0  0  0  0  0  0  0  0  0  0
   15.6259   46.6316   27.0027 H   0  0  0  0  0  0  0  0  0  0  0  0
    9.8139   40.7027   31.7633 H   0  0  0  0  0  0  0  0  0  0  0  0
   11.3607   41.5352   31.4553 H   0  0  0  0  0  0  0  0  0  0  0  0
   11.7266   39.5240   30.3507 H   0  0  0  0  0  0  0  0  0  0  0  0
   10.1131   38.2663   32.6385 H   0  0  0  0  0  0  0  0  0  0  0  0
   13.6729   37.4652   31.2244 H   0  0  0  0  0  0  0  0  0  0  0  0
   10.0525   38.1038   29.7640 H   0  0  0  0  0  0  0  0  0  0  0  0
   11.2664   36.3100   32.5098 H   0  0  0  0  0  0  0  0  0  0  0  0
   12.1582   35.5031   30.6298 H   0  0  0  0  0  0  0  0  0  0  0  0
   12.3362   38.3586   34.7452 H   0  0  0  0  0  0  0  0  0  0  0  0
   16.7573   34.1788   32.4619 H   0  0  0  0  0  0  0  0  0  0  0  0
   15.3534   35.7352   37.5139 H   0  0  0  0  0  0  0  0  0  0  0  0
   16.6366   34.5313   37.1415 H   0  0  0  0  0  0  0  0  0  0  0  0
  1  2  2  0
  1  3  1  0
  3  4  1  0
  4  5  1  0
  6  1  1  0
  7  6  1  0
  6  8  1  0
  8  9  1  0
  9 10  2  0
 11  9  1  0
 10 12  1  0
 13 11  2  0
 12 14  2  0
 14 13  1  0
 14 15  1  0
 15 16  1  0
  4 17  2  0
  4 18  1  0
 19 18  1  0
 19 20  1  0
 20 21  1  0
 20 22  1  0
 21 23  1  0
 22 24  1  0
 22 25  1  0
 25 23  1  0
 23 26  1  0
 25 27  1  0
 28 26  1  0
 29 26  1  0
 30 28  2  0
 28 31  1  0
 32 29  2  0
 33 30  1  0
 31 34  2  0
 31 32  1  0
 35 33  2  0
 35 34  1  0
 34 36  1  0
  6 37  1  1
  7 38  1  0
  7 39  1  0
  8 40  1  0
  8 41  1  0
 10 42  1  0
 11 43  1  0
 12 44  1  0
 13 45  1  0
 16 46  1  0
 16 47  1  0
 16 48  1  0
 19 49  1  0
 19 50  1  0
 20 51  1  0
 22 52  1  0
 23 53  1  0
 24 54  1  0
 25 55  1  0
 27 56  1  0
 29 57  1  0
 33 58  1  0
 36 59  1  0
 36 60  1  0
M  CHG  1   5  -1
M  END
>  <EmbedRMS>  (60) 
0.08871215553391042

$$$$

     RDKit          3D

 60 63  0  0  0  0  0  0  0  0999 V2000
   10.2920   43.7670   33.7922 C   0  0  0  0  0  0  0  0  0  0  0  0
   11.4134   43.5793   34.3495 O   0  0  0  0  0  0  0  0  0  0  0  0
    9.3642   42.7324   33.7091 O   0  0  0  0  0  0  0  0  0  0  0  0
    9.8841   41.2333   34.2855 P   0  0  0  0  0  5  0  0  0  0  0  0
   10.3669   41.4664   35.8755 O   0  0  0  0  0  1  0  0  0  0  0  0
    9.9649   45.1145   33.2352 C   0  0  1  0  0  0  0  0  0  0  0  0
   11.0572   46.0536   33.4982 N   0  0  0  0  0  0  0  0  0  0  0  0
    9.6949   45.0676   31.7165 C   0  0  0  0  0  0  0  0  0  0  0  0
    8.4585   44.2769   31.3599 C   0  0  0  0  0  0  0  0  0  0  0  0
    8.5642   43.0932   30.6133 C   0  0  0  0  0  0  0  0  0  0  0  0
    7.1891   44.7189   31.7653 C   0  0  0  0  0  0  0  0  0  0  0  0
    7.4238   42.3464   30.3067 C   0  0  0  0  0  0  0  0  0  0  0  0
    6.0477   43.9731   31.4557 C   0  0  0  0  0  0  0  0  0  0  0  0
    6.1593   42.7745   30.7255 C   0  0  0  0  0  0  0  0  0  0  0  0
    5.0460   41.9875   30.3957 O   0  0  0  0  0  0  0  0  0  0  0  0
    3.7052   42.2998   30.7589 C   0  0  0  0  0  0  0  0  0  0  0  0
    8.8061   40.1911   34.2092 O   0  0  0  0  0  0  0  0  0  0  0  0
   11.2358   40.7903   33.3674 O   0  0  0  0  0  0  0  0  0  0  0  0
   10.9118   40.6822   31.9954 C   0  0  0  0  0  0  0  0  0  0  0  0
   11.5172   39.3771   31.4405 C   0  0  0  0  0  0  0  0  0  0  0  0
   12.7476   39.0869   32.0762 O   0  0  0  0  0  0  0  0  0  0  0  0
   10.6069   38.1846   31.6658 C   0  0  0  0  0  0  0  0  0  0  0  0
   12.9372   37.6811   32.0291 C   0  0  0  0  0  0  0  0  0  0  0  0
    9.6405   38.0884   30.6473 O   0  0  0  0  0  0  0  0  0  0  0  0
   11.5790   37.0132   31.7043 C   0  0  0  0  0  0  0  0  0  0  0  0
   13.4915   37.2181   33.3239 N   0  0  0  0  0  0  0  0  0  0  0  0
   11.6127   36.3389   30.4670 O   0  0  0  0  0  0  0  0  0  0  0  0
   14.4766   36.3271   33.5731 C   0  0  0  0  0  0  0  0  0  0  0  0
   13.1184   37.6316   34.5690 C   0  0  0  0  0  0  0  0  0  0  0  0
   15.2066   35.6139   32.6741 N   0  0  0  0  0  0  0  0  0  0  0  0
   14.6735   36.2273   34.9184 C   0  0  0  0  0  0  0  0  0  0  0  0
   13.8228   37.0455   35.5785 N   0  0  0  0  0  0  0  0  0  0  0  0
   16.1638   34.7592   33.1548 C   0  0  0  0  0  0  0  0  0  0  0  0
   15.6517   35.3490   35.4132 C   0  0  0  0  0  0  0  0  0  0  0  0
   16.3792   34.6308   34.5043 N   0  0  0  0  0  0  0  0  0  0  0  0
   15.9004   35.1932   36.8091 N   0  0  0  0  0  0  0  0  0  0  0  0
    9.0567   45.4902   33.7547 H   0  0  0  0  0  0  0  0  0  0  0  0
   11.9486   45.7003   33.0775 H   0  0  0  0  0  0  0  0  0  0  0  0
   11.1933   46.1510   34.5314 H   0  0  0  0  0  0  0  0  0  0  0  0
   10.5881   44.6547   31.1967 H   0  0  0  0  0  0  0  0  0  0  0  0
    9.5585   46.1059   31.3426 H   0  0  0  0  0  0  0  0  0  0  0  0
    9.5293   42.7454   30.2692 H   0  0  0  0  0  0  0  0  0  0  0  0
    7.0827   45.6398   32.3249 H   0  0  0  0  0  0  0  0  0  0  0  0
    7.5233   41.4295   29.7395 H   0  0  0  0  0  0  0  0  0  0  0  0
    5.0852   44.3365   31.7888 H   0  0  0  0  0  0  0  0  0  0  0  0
    3.0312   41.5081   30.3726 H   0  0  0  0  0  0  0  0  0  0  0  0
    3.4051   43.2714   30.3125 H   0  0  0  0  0  0  0  0  0  0  0  0
    3.6088   42.3408   31.8645 H   0  0  0  0  0  0  0  0  0  0  0  0
    9.8211   40.7080   31.7633 H   0  0  0  0  0  0  0  0  0  0  0  0
   11.3806   41.5403   31.4684 H   0  0  0  0  0  0  0  0  0  0  0  0
   11.7000   39.5030   30.3483 H   0  0  0  0  0  0  0  0  0  0  0  0
   10.1095   38.2738   32.6606 H   0  0  0  0  0  0  0  0  0  0  0  0
   13.6715   37.4595   31.2229 H   0  0  0  0  0  0  0  0  0  0  0  0
    9.0016   37.3857   30.9356 H   0  0  0  0  0  0  0  0  0  0  0  0
   11.2708   36.3043   32.5084 H   0  0  0  0  0  0  0  0  0  0  0  0
   12.1449   35.5139   30.6135 H   0  0  0  0  0  0  0  0  0  0  0  0
   12.3362   38.3592   34.7445 H   0  0  0  0  0  0  0  0  0  0  0  0
   16.7570   34.1786   32.4620 H   0  0  0  0  0  0  0  0  0  0  0  0
   15.3531   35.7355   37.5139 H   0  0  0  0  0  0  0  0  0  0  0  0
   16.6363   34.5314   37.1416 H   0  0  0  0  0  0  0  0  0  0  0  0
  1  2  2  0
  1  3  1  0
  3  4  1  0
  4  5  1  0
  6  1  1  0
  7  6  1  0
  6  8  1  0
  8  9  1  0
  9 10  2  0
 11  9  1  0
 10 12  1  0
 13 11  2  0
 12 14  2  0
 14 13  1  0
 14 15  1  0
 15 16  1  0
  4 17  2  0
  4 18  1  0
 19 18  1  0
 19 20  1  0
 20 21  1  0
 20 22  1  0
 21 23  1  0
 22 24  1  0
 22 25  1  0
 25 23  1  0
 23 26  1  0
 25 27  1  0
 28 26  1  0
 29 26  1  0
 30 28  2  0
 28 31  1  0
 32 29  2  0
 33 30  1  0
 31 34  2  0
 31 32  1  0
 35 33  2  0
 35 34  1  0
 34 36  1  0
  6 37  1  1
  7 38  1  0
  7 39  1  0
  8 40  1  0
  8 41  1  0
 10 42  1  0
 11 43  1  0
 12 44  1  0
 13 45  1  0
 16 46  1  0
 16 47  1  0
 16 48  1  0
 19 49  1  0
 19 50  1  0
 20 51  1  0
 22 52  1  0
 23 53  1  0
 24 54  1  0
 25 55  1  0
 27 56  1  0
 29 57  1  0
 33 58  1  0
 36 59  1  0
 36 60  1  0
M  CHG  1   5  -1
M  END
>  <EmbedRMS>  (61) 
0.08979758526604555

$$$$

     RDKit          3D

 60 63  0  0  0  0  0  0  0  0999 V2000
   10.2904   43.7682   33.8031 C   0  0  0  0  0  0  0  0  0  0  0  0
   11.4118   43.5807   34.3602 O   0  0  0  0  0  0  0  0  0  0  0  0
    9.3643   42.7327   33.7094 O   0  0  0  0  0  0  0  0  0  0  0  0
    9.8843   41.2331   34.2850 P   0  0  0  0  0  5  0  0  0  0  0  0
   10.3673   41.4653   35.8751 O   0  0  0  0  0  1  0  0  0  0  0  0
    9.9694   45.1052   33.2289 C   0  0  1  0  0  0  0  0  0  0  0  0
   11.0570   46.0521   33.4892 N   0  0  0  0  0  0  0  0  0  0  0  0
    9.7145   44.9868   31.7154 C   0  0  0  0  0  0  0  0  0  0  0  0
    9.2942   46.3082   31.1245 C   0  0  0  0  0  0  0  0  0  0  0  0
    7.9583   46.7282   31.2130 C   0  0  0  0  0  0  0  0  0  0  0  0
   10.2407   47.1511   30.5217 C   0  0  0  0  0  0  0  0  0  0  0  0
    7.5719   47.9657   30.6906 C   0  0  0  0  0  0  0  0  0  0  0  0
    9.8538   48.3890   29.9994 C   0  0  0  0  0  0  0  0  0  0  0  0
    8.5110   48.8051   30.0801 C   0  0  0  0  0  0  0  0  0  0  0  0
    8.0729   50.0369   29.5716 O   0  0  0  0  0  0  0  0  0  0  0  0
    8.9167   50.9867   28.9288 C   0  0  0  0  0  0  0  0  0  0  0  0
    8.8067   40.1904   34.2085 O   0  0  0  0  0  0  0  0  0  0  0  0
   11.2358   40.7922   33.3657 O   0  0  0  0  0  0  0  0  0  0  0  0
   10.9121   40.6852   31.9932 C   0  0  0  0  0  0  0  0  0  0  0  0
   11.5169   39.3780   31.4397 C   0  0  0  0  0  0  0  0  0  0  0  0
   12.7471   39.0875   32.0760 O   0  0  0  0  0  0  0  0  0  0  0  0
   10.6066   38.1854   31.6656 C   0  0  0  0  0  0  0  0  0  0  0  0
   12.9370   37.6817   32.0291 C   0  0  0  0  0  0  0  0  0  0  0  0
    9.6403   38.0884   30.6474 O   0  0  0  0  0  0  0  0  0  0  0  0
   11.5788   37.0138   31.7045 C   0  0  0  0  0  0  0  0  0  0  0  0
   13.4915   37.2184   33.3239 N   0  0  0  0  0  0  0  0  0  0  0  0
   11.6125   36.3391   30.4674 O   0  0  0  0  0  0  0  0  0  0  0  0
   14.4765   36.3273   33.5730 C   0  0  0  0  0  0  0  0  0  0  0  0
   13.1184   37.6318   34.5691 C   0  0  0  0  0  0  0  0  0  0  0  0
   15.2065   35.6140   32.6740 N   0  0  0  0  0  0  0  0  0  0  0  0
   14.6735   36.2274   34.9184 C   0  0  0  0  0  0  0  0  0  0  0  0
   13.8227   37.0456   35.5785 N   0  0  0  0  0  0  0  0  0  0  0  0
   16.1636   34.7593   33.1547 C   0  0  0  0  0  0  0  0  0  0  0  0
   15.6516   35.3491   35.4132 C   0  0  0  0  0  0  0  0  0  0  0  0
   16.3792   34.6309   34.5042 N   0  0  0  0  0  0  0  0  0  0  0  0
   15.9003   35.1932   36.8090 N   0  0  0  0  0  0  0  0  0  0  0  0
    9.0443   45.4768   33.7226 H   0  0  0  0  0  0  0  0  0  0  0  0
   11.9527   45.6970   33.0796 H   0  0  0  0  0  0  0  0  0  0  0  0
   11.1839   46.1615   34.5223 H   0  0  0  0  0  0  0  0  0  0  0  0
   10.6299   44.6117   31.2054 H   0  0  0  0  0  0  0  0  0  0  0  0
    8.9129   44.2386   31.5268 H   0  0  0  0  0  0  0  0  0  0  0  0
    7.2169   46.0976   31.6881 H   0  0  0  0  0  0  0  0  0  0  0  0
   11.2794   46.8509   30.4580 H   0  0  0  0  0  0  0  0  0  0  0  0
    6.5372   48.2759   30.7629 H   0  0  0  0  0  0  0  0  0  0  0  0
   10.6057   49.0148   29.5385 H   0  0  0  0  0  0  0  0  0  0  0  0
    9.3712   50.5399   28.0194 H   0  0  0  0  0  0  0  0  0  0  0  0
    8.3101   51.8653   28.6278 H   0  0  0  0  0  0  0  0  0  0  0  0
    9.7113   51.3255   29.6266 H   0  0  0  0  0  0  0  0  0  0  0  0
    9.8218   40.7194   31.7578 H   0  0  0  0  0  0  0  0  0  0  0  0
   11.3824   41.5428   31.4662 H   0  0  0  0  0  0  0  0  0  0  0  0
   11.7002   39.5025   30.3474 H   0  0  0  0  0  0  0  0  0  0  0  0
   10.1093   38.2753   32.6605 H   0  0  0  0  0  0  0  0  0  0  0  0
   13.6711   37.4601   31.2227 H   0  0  0  0  0  0  0  0  0  0  0  0
    9.0032   37.3836   30.9348 H   0  0  0  0  0  0  0  0  0  0  0  0
   11.2705   36.3052   32.5089 H   0  0  0  0  0  0  0  0  0  0  0  0
   12.1446   35.5140   30.6143 H   0  0  0  0  0  0  0  0  0  0  0  0
   12.3362   38.3594   34.7446 H   0  0  0  0  0  0  0  0  0  0  0  0
   16.7569   34.1787   32.4619 H   0  0  0  0  0  0  0  0  0  0  0  0
   15.3532   35.7355   37.5139 H   0  0  0  0  0  0  0  0  0  0  0  0
   16.6362   34.5314   37.1415 H   0  0  0  0  0  0  0  0  0  0  0  0
  1  2  2  0
  1  3  1  0
  3  4  1  0
  4  5  1  0
  6  1  1  0
  7  6  1  0
  6  8  1  0
  8  9  1  0
  9 10  2  0
 11  9  1  0
 10 12  1  0
 13 11  2  0
 12 14  2  0
 14 13  1  0
 14 15  1  0
 15 16  1  0
  4 17  2  0
  4 18  1  0
 19 18  1  0
 19 20  1  0
 20 21  1  0
 20 22  1  0
 21 23  1  0
 22 24  1  0
 22 25  1  0
 25 23  1  0
 23 26  1  0
 25 27  1  0
 28 26  1  0
 29 26  1  0
 30 28  2  0
 28 31  1  0
 32 29  2  0
 33 30  1  0
 31 34  2  0
 31 32  1  0
 35 33  2  0
 35 34  1  0
 34 36  1  0
  6 37  1  1
  7 38  1  0
  7 39  1  0
  8 40  1  0
  8 41  1  0
 10 42  1  0
 11 43  1  0
 12 44  1  0
 13 45  1  0
 16 46  1  0
 16 47  1  0
 16 48  1  0
 19 49  1  0
 19 50  1  0
 20 51  1  0
 22 52  1  0
 23 53  1  0
 24 54  1  0
 25 55  1  0
 27 56  1  0
 29 57  1  0
 33 58  1  0
 36 59  1  0
 36 60  1  0
M  CHG  1   5  -1
M  END
>  <EmbedRMS>  (62) 
0.08923994114901429

$$$$

     RDKit          3D

 60 63  0  0  0  0  0  0  0  0999 V2000
   10.2898   43.7708   33.7888 C   0  0  0  0  0  0  0  0  0  0  0  0
   11.4119   43.5888   34.3471 O   0  0  0  0  0  0  0  0  0  0  0  0
    9.3645   42.7334   33.7089 O   0  0  0  0  0  0  0  0  0  0  0  0
    9.8857   41.2348   34.2857 P   0  0  0  0  0  5  0  0  0  0  0  0
   10.3683   41.4680   35.8756 O   0  0  0  0  0  1  0  0  0  0  0  0
    9.9590   45.1133   33.2304 C   0  0  1  0  0  0  0  0  0  0  0  0
   11.0623   46.0348   33.5084 N   0  0  0  0  0  0  0  0  0  0  0  0
    9.6731   45.0620   31.7098 C   0  0  0  0  0  0  0  0  0  0  0  0
    8.4452   44.2526   31.3670 C   0  0  0  0  0  0  0  0  0  0  0  0
    8.5613   43.0707   30.6189 C   0  0  0  0  0  0  0  0  0  0  0  0
    7.1743   44.6714   31.7915 C   0  0  0  0  0  0  0  0  0  0  0  0
    7.4318   42.2997   30.3318 C   0  0  0  0  0  0  0  0  0  0  0  0
    6.0440   43.9023   31.5005 C   0  0  0  0  0  0  0  0  0  0  0  0
    6.1611   42.7101   30.7768 C   0  0  0  0  0  0  0  0  0  0  0  0
    4.9986   41.9679   30.5209 O   0  0  0  0  0  0  0  0  0  0  0  0
    4.9737   40.7341   29.8104 C   0  0  0  0  0  0  0  0  0  0  0  0
    8.8077   40.1924   34.2097 O   0  0  0  0  0  0  0  0  0  0  0  0
   11.2370   40.7913   33.3673 O   0  0  0  0  0  0  0  0  0  0  0  0
   10.9124   40.6828   31.9955 C   0  0  0  0  0  0  0  0  0  0  0  0
   11.5164   39.3771   31.4405 C   0  0  0  0  0  0  0  0  0  0  0  0
   12.7471   39.0854   32.0746 O   0  0  0  0  0  0  0  0  0  0  0  0
   10.6046   38.1862   31.6671 C   0  0  0  0  0  0  0  0  0  0  0  0
   12.9345   37.6791   32.0283 C   0  0  0  0  0  0  0  0  0  0  0  0
    9.6379   38.0921   30.6486 O   0  0  0  0  0  0  0  0  0  0  0  0
   11.5762   37.0127   31.7054 C   0  0  0  0  0  0  0  0  0  0  0  0
   13.4909   37.2175   33.3234 N   0  0  0  0  0  0  0  0  0  0  0  0
   11.6235   36.3372   30.4680 O   0  0  0  0  0  0  0  0  0  0  0  0
   14.4765   36.3271   33.5727 C   0  0  0  0  0  0  0  0  0  0  0  0
   13.1181   37.6314   34.5686 C   0  0  0  0  0  0  0  0  0  0  0  0
   15.2066   35.6137   32.6739 N   0  0  0  0  0  0  0  0  0  0  0  0
   14.6736   36.2275   34.9182 C   0  0  0  0  0  0  0  0  0  0  0  0
   13.8227   37.0457   35.5782 N   0  0  0  0  0  0  0  0  0  0  0  0
   16.1638   34.7592   33.1548 C   0  0  0  0  0  0  0  0  0  0  0  0
   15.6517   35.3492   35.4131 C   0  0  0  0  0  0  0  0  0  0  0  0
   16.3793   34.6309   34.5043 N   0  0  0  0  0  0  0  0  0  0  0  0
   15.9003   35.1934   36.8090 N   0  0  0  0  0  0  0  0  0  0  0  0
    9.0563   45.4848   33.7629 H   0  0  0  0  0  0  0  0  0  0  0  0
   11.8794   45.8023   32.8964 H   0  0  0  0  0  0  0  0  0  0  0  0
   10.7575   47.0048   33.2619 H   0  0  0  0  0  0  0  0  0  0  0  0
    9.5170   46.0967   31.3343 H   0  0  0  0  0  0  0  0  0  0  0  0
   10.5657   44.6601   31.1805 H   0  0  0  0  0  0  0  0  0  0  0  0
    9.5278   42.7412   30.2606 H   0  0  0  0  0  0  0  0  0  0  0  0
    7.0588   45.5900   32.3528 H   0  0  0  0  0  0  0  0  0  0  0  0
    7.5580   41.3877   29.7644 H   0  0  0  0  0  0  0  0  0  0  0  0
    5.0713   44.2327   31.8424 H   0  0  0  0  0  0  0  0  0  0  0  0
    5.5939   39.9779   30.3367 H   0  0  0  0  0  0  0  0  0  0  0  0
    3.9289   40.3650   29.7613 H   0  0  0  0  0  0  0  0  0  0  0  0
    5.3477   40.8820   28.7753 H   0  0  0  0  0  0  0  0  0  0  0  0
    9.8217   40.7090   31.7640 H   0  0  0  0  0  0  0  0  0  0  0  0
   11.3813   41.5405   31.4678 H   0  0  0  0  0  0  0  0  0  0  0  0
   11.6980   39.5025   30.3480 H   0  0  0  0  0  0  0  0  0  0  0  0
   10.1093   38.2758   32.6630 H   0  0  0  0  0  0  0  0  0  0  0  0
   13.6673   37.4549   31.2214 H   0  0  0  0  0  0  0  0  0  0  0  0
    8.9751   37.4196   30.9545 H   0  0  0  0  0  0  0  0  0  0  0  0
   11.2862   36.3036   32.5172 H   0  0  0  0  0  0  0  0  0  0  0  0
   10.8682   35.6930   30.4646 H   0  0  0  0  0  0  0  0  0  0  0  0
   12.3355   38.3585   34.7440 H   0  0  0  0  0  0  0  0  0  0  0  0
   16.7572   34.1786   32.4621 H   0  0  0  0  0  0  0  0  0  0  0  0
   15.3530   35.7357   37.5138 H   0  0  0  0  0  0  0  0  0  0  0  0
   16.6361   34.5315   37.1415 H   0  0  0  0  0  0  0  0  0  0  0  0
  1  2  2  0
  1  3  1  0
  3  4  1  0
  4  5  1  0
  6  1  1  0
  7  6  1  0
  6  8  1  0
  8  9  1  0
  9 10  2  0
 11  9  1  0
 10 12  1  0
 13 11  2  0
 12 14  2  0
 14 13  1  0
 14 15  1  0
 15 16  1  0
  4 17  2  0
  4 18  1  0
 19 18  1  0
 19 20  1  0
 20 21  1  0
 20 22  1  0
 21 23  1  0
 22 24  1  0
 22 25  1  0
 25 23  1  0
 23 26  1  0
 25 27  1  0
 28 26  1  0
 29 26  1  0
 30 28  2  0
 28 31  1  0
 32 29  2  0
 33 30  1  0
 31 34  2  0
 31 32  1  0
 35 33  2  0
 35 34  1  0
 34 36  1  0
  6 37  1  1
  7 38  1  0
  7 39  1  0
  8 40  1  0
  8 41  1  0
 10 42  1  0
 11 43  1  0
 12 44  1  0
 13 45  1  0
 16 46  1  0
 16 47  1  0
 16 48  1  0
 19 49  1  0
 19 50  1  0
 20 51  1  0
 22 52  1  0
 23 53  1  0
 24 54  1  0
 25 55  1  0
 27 56  1  0
 29 57  1  0
 33 58  1  0
 36 59  1  0
 36 60  1  0
M  CHG  1   5  -1
M  END
>  <EmbedRMS>  (63) 
0.08932080767166413

$$$$

     RDKit          3D

 60 63  0  0  0  0  0  0  0  0999 V2000
   10.2940   43.7721   33.7964 C   0  0  0  0  0  0  0  0  0  0  0  0
   11.4139   43.5898   34.3580 O   0  0  0  0  0  0  0  0  0  0  0  0
    9.3670   42.7360   33.7088 O   0  0  0  0  0  0  0  0  0  0  0  0
    9.8870   41.2360   34.2839 P   0  0  0  0  0  5  0  0  0  0  0  0
   10.3707   41.4671   35.8740 O   0  0  0  0  0  1  0  0  0  0  0  0
    9.9762   45.1033   33.2097 C   0  0  1  0  0  0  0  0  0  0  0  0
   11.0440   46.0545   33.5253 N   0  0  0  0  0  0  0  0  0  0  0  0
    9.7503   45.0008   31.6774 C   0  0  0  0  0  0  0  0  0  0  0  0
   10.9972   45.2128   30.8403 C   0  0  0  0  0  0  0  0  0  0  0  0
   11.0174   46.2086   29.8491 C   0  0  0  0  0  0  0  0  0  0  0  0
   12.1342   44.4070   31.0156 C   0  0  0  0  0  0  0  0  0  0  0  0
   12.1534   46.3983   29.0572 C   0  0  0  0  0  0  0  0  0  0  0  0
   13.2700   44.5968   30.2235 C   0  0  0  0  0  0  0  0  0  0  0  0
   13.2866   45.5978   29.2349 C   0  0  0  0  0  0  0  0  0  0  0  0
   14.4011   45.8274   28.4145 O   0  0  0  0  0  0  0  0  0  0  0  0
   15.6167   45.0894   28.4855 C   0  0  0  0  0  0  0  0  0  0  0  0
    8.8090   40.1934   34.2084 O   0  0  0  0  0  0  0  0  0  0  0  0
   11.2368   40.7962   33.3611 O   0  0  0  0  0  0  0  0  0  0  0  0
   10.9051   40.6775   31.9909 C   0  0  0  0  0  0  0  0  0  0  0  0
   11.5135   39.3733   31.4398 C   0  0  0  0  0  0  0  0  0  0  0  0
   12.7444   39.0848   32.0751 O   0  0  0  0  0  0  0  0  0  0  0  0
   10.6038   38.1825   31.6674 C   0  0  0  0  0  0  0  0  0  0  0  0
   12.9343   37.6788   32.0285 C   0  0  0  0  0  0  0  0  0  0  0  0
    9.6370   38.0880   30.6491 O   0  0  0  0  0  0  0  0  0  0  0  0
   11.5768   37.0106   31.7054 C   0  0  0  0  0  0  0  0  0  0  0  0
   13.4910   37.2177   33.3235 N   0  0  0  0  0  0  0  0  0  0  0  0
   11.6247   36.3361   30.4676 O   0  0  0  0  0  0  0  0  0  0  0  0
   14.4765   36.3271   33.5728 C   0  0  0  0  0  0  0  0  0  0  0  0
   13.1182   37.6315   34.5687 C   0  0  0  0  0  0  0  0  0  0  0  0
   15.2066   35.6137   32.6739 N   0  0  0  0  0  0  0  0  0  0  0  0
   14.6736   36.2276   34.9182 C   0  0  0  0  0  0  0  0  0  0  0  0
   13.8228   37.0457   35.5782 N   0  0  0  0  0  0  0  0  0  0  0  0
   16.1638   34.7592   33.1548 C   0  0  0  0  0  0  0  0  0  0  0  0
   15.6517   35.3492   35.4131 C   0  0  0  0  0  0  0  0  0  0  0  0
   16.3793   34.6309   34.5043 N   0  0  0  0  0  0  0  0  0  0  0  0
   15.9003   35.1934   36.8090 N   0  0  0  0  0  0  0  0  0  0  0  0
    9.0285   45.4512   33.6801 H   0  0  0  0  0  0  0  0  0  0  0  0
   10.7871   46.9815   33.1136 H   0  0  0  0  0  0  0  0  0  0  0  0
   11.0596   46.2028   34.5613 H   0  0  0  0  0  0  0  0  0  0  0  0
    8.9885   45.7631   31.4022 H   0  0  0  0  0  0  0  0  0  0  0  0
    9.3021   44.0197   31.4070 H   0  0  0  0  0  0  0  0  0  0  0  0
   10.1537   46.8410   29.6858 H   0  0  0  0  0  0  0  0  0  0  0  0
   12.1537   43.6408   31.7744 H   0  0  0  0  0  0  0  0  0  0  0  0
   12.1525   47.1713   28.2991 H   0  0  0  0  0  0  0  0  0  0  0  0
   14.1291   43.9613   30.3893 H   0  0  0  0  0  0  0  0  0  0  0  0
   16.0758   45.2055   29.4900 H   0  0  0  0  0  0  0  0  0  0  0  0
   16.3231   45.4802   27.7248 H   0  0  0  0  0  0  0  0  0  0  0  0
   15.4247   44.0161   28.2745 H   0  0  0  0  0  0  0  0  0  0  0  0
    9.8134   40.7065   31.7614 H   0  0  0  0  0  0  0  0  0  0  0  0
   11.3662   41.5261   31.4494 H   0  0  0  0  0  0  0  0  0  0  0  0
   11.6962   39.4963   30.3470 H   0  0  0  0  0  0  0  0  0  0  0  0
   10.1086   38.2716   32.6635 H   0  0  0  0  0  0  0  0  0  0  0  0
   13.6676   37.4559   31.2216 H   0  0  0  0  0  0  0  0  0  0  0  0
    8.9779   37.4109   30.9527 H   0  0  0  0  0  0  0  0  0  0  0  0
   11.2879   36.3007   32.5168 H   0  0  0  0  0  0  0  0  0  0  0  0
   10.8714   35.6895   30.4646 H   0  0  0  0  0  0  0  0  0  0  0  0
   12.3356   38.3586   34.7441 H   0  0  0  0  0  0  0  0  0  0  0  0
   16.7572   34.1786   32.4621 H   0  0  0  0  0  0  0  0  0  0  0  0
   16.6361   34.5315   37.1415 H   0  0  0  0  0  0  0  0  0  0  0  0
   15.3531   35.7357   37.5138 H   0  0  0  0  0  0  0  0  0  0  0  0
  1  2  2  0
  1  3  1  0
  3  4  1  0
  4  5  1  0
  6  1  1  0
  7  6  1  0
  6  8  1  0
  8  9  1  0
  9 10  2  0
 11  9  1  0
 10 12  1  0
 13 11  2  0
 12 14  2  0
 14 13  1  0
 14 15  1  0
 15 16  1  0
  4 17  2  0
  4 18  1  0
 19 18  1  0
 19 20  1  0
 20 21  1  0
 20 22  1  0
 21 23  1  0
 22 24  1  0
 22 25  1  0
 25 23  1  0
 23 26  1  0
 25 27  1  0
 28 26  1  0
 29 26  1  0
 30 28  2  0
 28 31  1  0
 32 29  2  0
 33 30  1  0
 31 34  2  0
 31 32  1  0
 35 33  2  0
 35 34  1  0
 34 36  1  0
  6 37  1  1
  7 38  1  0
  7 39  1  0
  8 40  1  0
  8 41  1  0
 10 42  1  0
 11 43  1  0
 12 44  1  0
 13 45  1  0
 16 46  1  0
 16 47  1  0
 16 48  1  0
 19 49  1  0
 19 50  1  0
 20 51  1  0
 22 52  1  0
 23 53  1  0
 24 54  1  0
 25 55  1  0
 27 56  1  0
 29 57  1  0
 33 58  1  0
 36 59  1  0
 36 60  1  0
M  CHG  1   5  -1
M  END
>  <EmbedRMS>  (64) 
0.08982311615406065

$$$$

     RDKit          3D

 60 63  0  0  0  0  0  0  0  0999 V2000
   10.2895   43.7707   33.7895 C   0  0  0  0  0  0  0  0  0  0  0  0
   11.4145   43.5857   34.3411 O   0  0  0  0  0  0  0  0  0  0  0  0
    9.3634   42.7338   33.7104 O   0  0  0  0  0  0  0  0  0  0  0  0
    9.8845   41.2351   34.2874 P   0  0  0  0  0  5  0  0  0  0  0  0
   10.3668   41.4684   35.8772 O   0  0  0  0  0  1  0  0  0  0  0  0
    9.9609   45.1136   33.2263 C   0  0  1  0  0  0  0  0  0  0  0  0
   11.0589   46.0382   33.5133 N   0  0  0  0  0  0  0  0  0  0  0  0
    9.7330   45.0496   31.6983 C   0  0  0  0  0  0  0  0  0  0  0  0
    8.5467   44.2001   31.3062 C   0  0  0  0  0  0  0  0  0  0  0  0
    8.7261   43.0566   30.5124 C   0  0  0  0  0  0  0  0  0  0  0  0
    7.2508   44.5488   31.7193 C   0  0  0  0  0  0  0  0  0  0  0  0
    7.6364   42.2495   30.1748 C   0  0  0  0  0  0  0  0  0  0  0  0
    6.1603   43.7435   31.3782 C   0  0  0  0  0  0  0  0  0  0  0  0
    6.3419   42.5862   30.6125 C   0  0  0  0  0  0  0  0  0  0  0  0
    5.2180   41.8041   30.3080 O   0  0  0  0  0  0  0  0  0  0  0  0
    5.2599   40.5975   29.5532 C   0  0  0  0  0  0  0  0  0  0  0  0
    8.8070   40.1922   34.2104 O   0  0  0  0  0  0  0  0  0  0  0  0
   11.2365   40.7906   33.3713 O   0  0  0  0  0  0  0  0  0  0  0  0
   10.9149   40.6879   31.9991 C   0  0  0  0  0  0  0  0  0  0  0  0
   11.5269   39.3897   31.4389 C   0  0  0  0  0  0  0  0  0  0  0  0
   12.7509   39.0914   32.0845 O   0  0  0  0  0  0  0  0  0  0  0  0
   10.6121   38.1913   31.6455 C   0  0  0  0  0  0  0  0  0  0  0  0
   12.9429   37.6851   32.0296 C   0  0  0  0  0  0  0  0  0  0  0  0
    9.6068   38.0864   30.6604 O   0  0  0  0  0  0  0  0  0  0  0  0
   11.5844   37.0185   31.6878 C   0  0  0  0  0  0  0  0  0  0  0  0
   13.4897   37.2160   33.3250 N   0  0  0  0  0  0  0  0  0  0  0  0
   11.6200   36.3067   30.4688 O   0  0  0  0  0  0  0  0  0  0  0  0
   14.4758   36.3262   33.5739 C   0  0  0  0  0  0  0  0  0  0  0  0
   13.1175   37.6306   34.5699 C   0  0  0  0  0  0  0  0  0  0  0  0
   15.2065   35.6138   32.6746 N   0  0  0  0  0  0  0  0  0  0  0  0
   14.6731   36.2267   34.9191 C   0  0  0  0  0  0  0  0  0  0  0  0
   13.8224   37.0449   35.5792 N   0  0  0  0  0  0  0  0  0  0  0  0
   16.1640   34.7595   33.1551 C   0  0  0  0  0  0  0  0  0  0  0  0
   15.6518   35.3489   35.4136 C   0  0  0  0  0  0  0  0  0  0  0  0
   16.3795   34.6310   34.5046 N   0  0  0  0  0  0  0  0  0  0  0  0
   15.9006   35.1931   36.8094 N   0  0  0  0  0  0  0  0  0  0  0  0
    9.0384   45.4861   33.7250 H   0  0  0  0  0  0  0  0  0  0  0  0
   11.1152   46.1740   34.5498 H   0  0  0  0  0  0  0  0  0  0  0  0
   10.8130   46.9782   33.1255 H   0  0  0  0  0  0  0  0  0  0  0  0
   10.6608   44.6792   31.2080 H   0  0  0  0  0  0  0  0  0  0  0  0
    9.5549   46.0766   31.3116 H   0  0  0  0  0  0  0  0  0  0  0  0
    9.7113   42.7842   30.1572 H   0  0  0  0  0  0  0  0  0  0  0  0
    7.0841   45.4406   32.3100 H   0  0  0  0  0  0  0  0  0  0  0  0
    7.8120   41.3673   29.5745 H   0  0  0  0  0  0  0  0  0  0  0  0
    5.1683   44.0187   31.7132 H   0  0  0  0  0  0  0  0  0  0  0  0
    5.6437   40.7998   28.5309 H   0  0  0  0  0  0  0  0  0  0  0  0
    5.9048   39.8505   30.0628 H   0  0  0  0  0  0  0  0  0  0  0  0
    4.2336   40.1846   29.4720 H   0  0  0  0  0  0  0  0  0  0  0  0
    9.8246   40.7095   31.7655 H   0  0  0  0  0  0  0  0  0  0  0  0
   11.3818   41.5505   31.4781 H   0  0  0  0  0  0  0  0  0  0  0  0
   11.7312   39.5354   30.3537 H   0  0  0  0  0  0  0  0  0  0  0  0
   10.1211   38.2671   32.6415 H   0  0  0  0  0  0  0  0  0  0  0  0
   13.6882   37.4708   31.2320 H   0  0  0  0  0  0  0  0  0  0  0  0
   10.0249   38.1798   29.7659 H   0  0  0  0  0  0  0  0  0  0  0  0
   11.2796   36.3119   32.4911 H   0  0  0  0  0  0  0  0  0  0  0  0
   11.9859   36.9111   29.7710 H   0  0  0  0  0  0  0  0  0  0  0  0
   12.3364   38.3594   34.7453 H   0  0  0  0  0  0  0  0  0  0  0  0
   16.7577   34.1794   32.4622 H   0  0  0  0  0  0  0  0  0  0  0  0
   15.3532   35.7351   37.5144 H   0  0  0  0  0  0  0  0  0  0  0  0
   16.6369   34.5316   37.1418 H   0  0  0  0  0  0  0  0  0  0  0  0
  1  2  2  0
  1  3  1  0
  3  4  1  0
  4  5  1  0
  6  1  1  0
  7  6  1  0
  6  8  1  0
  8  9  1  0
  9 10  2  0
 11  9  1  0
 10 12  1  0
 13 11  2  0
 12 14  2  0
 14 13  1  0
 14 15  1  0
 15 16  1  0
  4 17  2  0
  4 18  1  0
 19 18  1  0
 19 20  1  0
 20 21  1  0
 20 22  1  0
 21 23  1  0
 22 24  1  0
 22 25  1  0
 25 23  1  0
 23 26  1  0
 25 27  1  0
 28 26  1  0
 29 26  1  0
 30 28  2  0
 28 31  1  0
 32 29  2  0
 33 30  1  0
 31 34  2  0
 31 32  1  0
 35 33  2  0
 35 34  1  0
 34 36  1  0
  6 37  1  1
  7 38  1  0
  7 39  1  0
  8 40  1  0
  8 41  1  0
 10 42  1  0
 11 43  1  0
 12 44  1  0
 13 45  1  0
 16 46  1  0
 16 47  1  0
 16 48  1  0
 19 49  1  0
 19 50  1  0
 20 51  1  0
 22 52  1  0
 23 53  1  0
 24 54  1  0
 25 55  1  0
 27 56  1  0
 29 57  1  0
 33 58  1  0
 36 59  1  0
 36 60  1  0
M  CHG  1   5  -1
M  END
>  <EmbedRMS>  (65) 
0.08763944223345171

$$$$

     RDKit          3D

 60 63  0  0  0  0  0  0  0  0999 V2000
   10.2875   43.7724   33.7999 C   0  0  0  0  0  0  0  0  0  0  0  0
   11.4101   43.5905   34.3569 O   0  0  0  0  0  0  0  0  0  0  0  0
    9.3639   42.7340   33.7095 O   0  0  0  0  0  0  0  0  0  0  0  0
    9.8850   41.2352   34.2864 P   0  0  0  0  0  5  0  0  0  0  0  0
   10.3675   41.4677   35.8765 O   0  0  0  0  0  1  0  0  0  0  0  0
    9.9623   45.1044   33.2248 C   0  0  1  0  0  0  0  0  0  0  0  0
   11.0640   46.0310   33.4993 N   0  0  0  0  0  0  0  0  0  0  0  0
    9.6874   44.9764   31.7100 C   0  0  0  0  0  0  0  0  0  0  0  0
    9.2414   46.2852   31.1102 C   0  0  0  0  0  0  0  0  0  0  0  0
   10.1527   47.0999   30.4204 C   0  0  0  0  0  0  0  0  0  0  0  0
    7.9168   46.7196   31.2702 C   0  0  0  0  0  0  0  0  0  0  0  0
    9.7423   48.3256   29.8876 C   0  0  0  0  0  0  0  0  0  0  0  0
    7.5069   47.9448   30.7371 C   0  0  0  0  0  0  0  0  0  0  0  0
    8.4109   48.7570   30.0427 C   0  0  0  0  0  0  0  0  0  0  0  0
    7.9505   49.9777   29.5274 O   0  0  0  0  0  0  0  0  0  0  0  0
    8.7583   50.9005   28.8039 C   0  0  0  0  0  0  0  0  0  0  0  0
    8.8081   40.1917   34.2096 O   0  0  0  0  0  0  0  0  0  0  0  0
   11.2365   40.7935   33.3685 O   0  0  0  0  0  0  0  0  0  0  0  0
   10.9140   40.6909   31.9960 C   0  0  0  0  0  0  0  0  0  0  0  0
   11.5263   39.3906   31.4378 C   0  0  0  0  0  0  0  0  0  0  0  0
   12.7501   39.0923   32.0844 O   0  0  0  0  0  0  0  0  0  0  0  0
   10.6119   38.1920   31.6452 C   0  0  0  0  0  0  0  0  0  0  0  0
   12.9427   37.6859   32.0296 C   0  0  0  0  0  0  0  0  0  0  0  0
    9.6068   38.0860   30.6602 O   0  0  0  0  0  0  0  0  0  0  0  0
   11.5844   37.0190   31.6880 C   0  0  0  0  0  0  0  0  0  0  0  0
   13.4898   37.2166   33.3250 N   0  0  0  0  0  0  0  0  0  0  0  0
   11.6202   36.3066   30.4694 O   0  0  0  0  0  0  0  0  0  0  0  0
   14.4758   36.3265   33.5738 C   0  0  0  0  0  0  0  0  0  0  0  0
   13.1175   37.6309   34.5699 C   0  0  0  0  0  0  0  0  0  0  0  0
   15.2064   35.6140   32.6745 N   0  0  0  0  0  0  0  0  0  0  0  0
   14.6731   36.2268   34.9190 C   0  0  0  0  0  0  0  0  0  0  0  0
   13.8224   37.0450   35.5792 N   0  0  0  0  0  0  0  0  0  0  0  0
   16.1639   34.7597   33.1550 C   0  0  0  0  0  0  0  0  0  0  0  0
   15.6517   35.3489   35.4135 C   0  0  0  0  0  0  0  0  0  0  0  0
   16.3794   34.6310   34.5045 N   0  0  0  0  0  0  0  0  0  0  0  0
   15.9006   35.1931   36.8093 N   0  0  0  0  0  0  0  0  0  0  0  0
    9.0443   45.4726   33.7347 H   0  0  0  0  0  0  0  0  0  0  0  0
   10.7423   47.0073   33.3074 H   0  0  0  0  0  0  0  0  0  0  0  0
   11.8657   45.8306   32.8568 H   0  0  0  0  0  0  0  0  0  0  0  0
    8.8894   44.2205   31.5381 H   0  0  0  0  0  0  0  0  0  0  0  0
   10.5967   44.6016   31.1891 H   0  0  0  0  0  0  0  0  0  0  0  0
   11.1827   46.7881   30.2983 H   0  0  0  0  0  0  0  0  0  0  0  0
    7.2026   46.1095   31.8096 H   0  0  0  0  0  0  0  0  0  0  0  0
   10.4674   48.9302   29.3603 H   0  0  0  0  0  0  0  0  0  0  0  0
    6.4812   48.2666   30.8662 H   0  0  0  0  0  0  0  0  0  0  0  0
    9.5990   51.2514   29.4389 H   0  0  0  0  0  0  0  0  0  0  0  0
    9.1495   50.4233   27.8807 H   0  0  0  0  0  0  0  0  0  0  0  0
    8.1404   51.7758   28.5170 H   0  0  0  0  0  0  0  0  0  0  0  0
    9.8236   40.7196   31.7601 H   0  0  0  0  0  0  0  0  0  0  0  0
   11.3792   41.5540   31.4733 H   0  0  0  0  0  0  0  0  0  0  0  0
   11.7314   39.5346   30.3524 H   0  0  0  0  0  0  0  0  0  0  0  0
   10.1210   38.2685   32.6412 H   0  0  0  0  0  0  0  0  0  0  0  0
   13.6880   37.4718   31.2319 H   0  0  0  0  0  0  0  0  0  0  0  0
   10.0256   38.1757   29.7656 H   0  0  0  0  0  0  0  0  0  0  0  0
   11.2795   36.3128   32.4916 H   0  0  0  0  0  0  0  0  0  0  0  0
   11.9870   36.9103   29.7715 H   0  0  0  0  0  0  0  0  0  0  0  0
   12.3365   38.3597   34.7455 H   0  0  0  0  0  0  0  0  0  0  0  0
   16.7575   34.1795   32.4621 H   0  0  0  0  0  0  0  0  0  0  0  0
   15.3532   35.7351   37.5143 H   0  0  0  0  0  0  0  0  0  0  0  0
   16.6368   34.5316   37.1417 H   0  0  0  0  0  0  0  0  0  0  0  0
  1  2  2  0
  1  3  1  0
  3  4  1  0
  4  5  1  0
  6  1  1  0
  7  6  1  0
  6  8  1  0
  8  9  1  0
  9 10  2  0
 11  9  1  0
 10 12  1  0
 13 11  2  0
 12 14  2  0
 14 13  1  0
 14 15  1  0
 15 16  1  0
  4 17  2  0
  4 18  1  0
 19 18  1  0
 19 20  1  0
 20 21  1  0
 20 22  1  0
 21 23  1  0
 22 24  1  0
 22 25  1  0
 25 23  1  0
 23 26  1  0
 25 27  1  0
 28 26  1  0
 29 26  1  0
 30 28  2  0
 28 31  1  0
 32 29  2  0
 33 30  1  0
 31 34  2  0
 31 32  1  0
 35 33  2  0
 35 34  1  0
 34 36  1  0
  6 37  1  1
  7 38  1  0
  7 39  1  0
  8 40  1  0
  8 41  1  0
 10 42  1  0
 11 43  1  0
 12 44  1  0
 13 45  1  0
 16 46  1  0
 16 47  1  0
 16 48  1  0
 19 49  1  0
 19 50  1  0
 20 51  1  0
 22 52  1  0
 23 53  1  0
 24 54  1  0
 25 55  1  0
 27 56  1  0
 29 57  1  0
 33 58  1  0
 36 59  1  0
 36 60  1  0
M  CHG  1   5  -1
M  END
>  <EmbedRMS>  (66) 
0.08660393986023268

$$$$

     RDKit          3D

 60 63  0  0  0  0  0  0  0  0999 V2000
   10.2879   43.7719   33.8023 C   0  0  0  0  0  0  0  0  0  0  0  0
   11.4129   43.5865   34.3533 O   0  0  0  0  0  0  0  0  0  0  0  0
    9.3633   42.7344   33.7121 O   0  0  0  0  0  0  0  0  0  0  0  0
    9.8852   41.2346   34.2857 P   0  0  0  0  0  5  0  0  0  0  0  0
   10.3686   41.4661   35.8756 O   0  0  0  0  0  1  0  0  0  0  0  0
    9.9688   45.1019   33.2142 C   0  0  1  0  0  0  0  0  0  0  0  0
   11.0576   46.0377   33.5062 N   0  0  0  0  0  0  0  0  0  0  0  0
    9.7786   44.9516   31.6904 C   0  0  0  0  0  0  0  0  0  0  0  0
    9.2572   46.2175   31.0584 C   0  0  0  0  0  0  0  0  0  0  0  0
    7.9022   46.5609   31.1818 C   0  0  0  0  0  0  0  0  0  0  0  0
   10.1232   47.0780   30.3656 C   0  0  0  0  0  0  0  0  0  0  0  0
    7.4193   47.7429   30.6135 C   0  0  0  0  0  0  0  0  0  0  0  0
    9.6396   48.2605   29.7977 C   0  0  0  0  0  0  0  0  0  0  0  0
    8.2787   48.6013   29.9182 C   0  0  0  0  0  0  0  0  0  0  0  0
    7.7453   49.7757   29.3668 O   0  0  0  0  0  0  0  0  0  0  0  0
    8.5016   50.7369   28.6379 C   0  0  0  0  0  0  0  0  0  0  0  0
    8.8079   40.1915   34.2092 O   0  0  0  0  0  0  0  0  0  0  0  0
   11.2365   40.7937   33.3657 O   0  0  0  0  0  0  0  0  0  0  0  0
   10.9125   40.6862   31.9933 C   0  0  0  0  0  0  0  0  0  0  0  0
   11.5158   39.3782   31.4399 C   0  0  0  0  0  0  0  0  0  0  0  0
   12.7465   39.0862   32.0746 O   0  0  0  0  0  0  0  0  0  0  0  0
   10.6043   38.1871   31.6670 C   0  0  0  0  0  0  0  0  0  0  0  0
   12.9343   37.6798   32.0284 C   0  0  0  0  0  0  0  0  0  0  0  0
    9.6377   38.0920   30.6487 O   0  0  0  0  0  0  0  0  0  0  0  0
   11.5760   37.0134   31.7057 C   0  0  0  0  0  0  0  0  0  0  0  0
   13.4909   37.2180   33.3233 N   0  0  0  0  0  0  0  0  0  0  0  0
   11.6234   36.3375   30.4685 O   0  0  0  0  0  0  0  0  0  0  0  0
   14.4764   36.3273   33.5727 C   0  0  0  0  0  0  0  0  0  0  0  0
   13.1182   37.6317   34.5686 C   0  0  0  0  0  0  0  0  0  0  0  0
   15.2065   35.6139   32.6738 N   0  0  0  0  0  0  0  0  0  0  0  0
   14.6735   36.2276   34.9181 C   0  0  0  0  0  0  0  0  0  0  0  0
   13.8227   37.0458   35.5781 N   0  0  0  0  0  0  0  0  0  0  0  0
   16.1637   34.7593   33.1547 C   0  0  0  0  0  0  0  0  0  0  0  0
   15.6516   35.3493   35.4130 C   0  0  0  0  0  0  0  0  0  0  0  0
   16.3792   34.6310   34.5042 N   0  0  0  0  0  0  0  0  0  0  0  0
   15.9002   35.1934   36.8089 N   0  0  0  0  0  0  0  0  0  0  0  0
    9.0245   45.4686   33.6766 H   0  0  0  0  0  0  0  0  0  0  0  0
   10.7939   46.9819   33.1432 H   0  0  0  0  0  0  0  0  0  0  0  0
   11.1207   46.1575   34.5441 H   0  0  0  0  0  0  0  0  0  0  0  0
    9.0529   44.1350   31.4788 H   0  0  0  0  0  0  0  0  0  0  0  0
   10.7422   44.6517   31.2212 H   0  0  0  0  0  0  0  0  0  0  0  0
    7.2207   45.9130   31.7194 H   0  0  0  0  0  0  0  0  0  0  0  0
   11.1743   46.8359   30.2686 H   0  0  0  0  0  0  0  0  0  0  0  0
    6.3712   47.9946   30.7153 H   0  0  0  0  0  0  0  0  0  0  0  0
   10.3314   48.9025   29.2698 H   0  0  0  0  0  0  0  0  0  0  0  0
    7.8306   51.5608   28.3198 H   0  0  0  0  0  0  0  0  0  0  0  0
    8.9435   50.2686   27.7330 H   0  0  0  0  0  0  0  0  0  0  0  0
    9.3031   51.1590   29.2803 H   0  0  0  0  0  0  0  0  0  0  0  0
    9.8222   40.7218   31.7581 H   0  0  0  0  0  0  0  0  0  0  0  0
   11.3835   41.5432   31.4658 H   0  0  0  0  0  0  0  0  0  0  0  0
   11.6981   39.5022   30.3473 H   0  0  0  0  0  0  0  0  0  0  0  0
   10.1090   38.2773   32.6629 H   0  0  0  0  0  0  0  0  0  0  0  0
   13.6670   37.4557   31.2213 H   0  0  0  0  0  0  0  0  0  0  0  0
    8.9778   37.4159   30.9531 H   0  0  0  0  0  0  0  0  0  0  0  0
   11.2860   36.3046   32.5177 H   0  0  0  0  0  0  0  0  0  0  0  0
   10.8690   35.6922   30.4658 H   0  0  0  0  0  0  0  0  0  0  0  0
   12.3356   38.3588   34.7441 H   0  0  0  0  0  0  0  0  0  0  0  0
   16.7570   34.1787   32.4620 H   0  0  0  0  0  0  0  0  0  0  0  0
   15.3530   35.7358   37.5137 H   0  0  0  0  0  0  0  0  0  0  0  0
   16.6361   34.5315   37.1414 H   0  0  0  0  0  0  0  0  0  0  0  0
  1  2  2  0
  1  3  1  0
  3  4  1  0
  4  5  1  0
  6  1  1  0
  7  6  1  0
  6  8  1  0
  8  9  1  0
  9 10  2  0
 11  9  1  0
 10 12  1  0
 13 11  2  0
 12 14  2  0
 14 13  1  0
 14 15  1  0
 15 16  1  0
  4 17  2  0
  4 18  1  0
 19 18  1  0
 19 20  1  0
 20 21  1  0
 20 22  1  0
 21 23  1  0
 22 24  1  0
 22 25  1  0
 25 23  1  0
 23 26  1  0
 25 27  1  0
 28 26  1  0
 29 26  1  0
 30 28  2  0
 28 31  1  0
 32 29  2  0
 33 30  1  0
 31 34  2  0
 31 32  1  0
 35 33  2  0
 35 34  1  0
 34 36  1  0
  6 37  1  1
  7 38  1  0
  7 39  1  0
  8 40  1  0
  8 41  1  0
 10 42  1  0
 11 43  1  0
 12 44  1  0
 13 45  1  0
 16 46  1  0
 16 47  1  0
 16 48  1  0
 19 49  1  0
 19 50  1  0
 20 51  1  0
 22 52  1  0
 23 53  1  0
 24 54  1  0
 25 55  1  0
 27 56  1  0
 29 57  1  0
 33 58  1  0
 36 59  1  0
 36 60  1  0
M  CHG  1   5  -1
M  END
>  <EmbedRMS>  (67) 
0.08893975219472793

$$$$

     RDKit          3D

 60 63  0  0  0  0  0  0  0  0999 V2000
   10.2879   43.7719   33.8024 C   0  0  0  0  0  0  0  0  0  0  0  0
   11.4129   43.5866   34.3534 O   0  0  0  0  0  0  0  0  0  0  0  0
    9.3633   42.7344   33.7122 O   0  0  0  0  0  0  0  0  0  0  0  0
    9.8852   41.2346   34.2857 P   0  0  0  0  0  5  0  0  0  0  0  0
   10.3686   41.4660   35.8757 O   0  0  0  0  0  1  0  0  0  0  0  0
    9.9689   45.1017   33.2139 C   0  0  1  0  0  0  0  0  0  0  0  0
   11.0574   46.0377   33.5061 N   0  0  0  0  0  0  0  0  0  0  0  0
    9.7794   44.9511   31.6900 C   0  0  0  0  0  0  0  0  0  0  0  0
    9.2567   46.2161   31.0576 C   0  0  0  0  0  0  0  0  0  0  0  0
    7.9013   46.5580   31.1808 C   0  0  0  0  0  0  0  0  0  0  0  0
   10.1216   47.0770   30.3640 C   0  0  0  0  0  0  0  0  0  0  0  0
    7.4169   47.7389   30.6114 C   0  0  0  0  0  0  0  0  0  0  0  0
    9.6365   48.2583   29.7948 C   0  0  0  0  0  0  0  0  0  0  0  0
    8.2752   48.5976   29.9150 C   0  0  0  0  0  0  0  0  0  0  0  0
    7.7402   49.7705   29.3621 O   0  0  0  0  0  0  0  0  0  0  0  0
    8.4950   50.7313   28.6311 C   0  0  0  0  0  0  0  0  0  0  0  0
    8.8079   40.1915   34.2093 O   0  0  0  0  0  0  0  0  0  0  0  0
   11.2365   40.7937   33.3657 O   0  0  0  0  0  0  0  0  0  0  0  0
   10.9125   40.6863   31.9933 C   0  0  0  0  0  0  0  0  0  0  0  0
   11.5158   39.3782   31.4399 C   0  0  0  0  0  0  0  0  0  0  0  0
   12.7465   39.0863   32.0746 O   0  0  0  0  0  0  0  0  0  0  0  0
   10.6043   38.1871   31.6670 C   0  0  0  0  0  0  0  0  0  0  0  0
   12.9343   37.6798   32.0284 C   0  0  0  0  0  0  0  0  0  0  0  0
    9.6377   38.0920   30.6487 O   0  0  0  0  0  0  0  0  0  0  0  0
   11.5760   37.0134   31.7057 C   0  0  0  0  0  0  0  0  0  0  0  0
   13.4909   37.2180   33.3233 N   0  0  0  0  0  0  0  0  0  0  0  0
   11.6234   36.3375   30.4685 O   0  0  0  0  0  0  0  0  0  0  0  0
   14.4764   36.3273   33.5727 C   0  0  0  0  0  0  0  0  0  0  0  0
   13.1182   37.6317   34.5686 C   0  0  0  0  0  0  0  0  0  0  0  0
   15.2065   35.6139   32.6738 N   0  0  0  0  0  0  0  0  0  0  0  0
   14.6735   36.2276   34.9181 C   0  0  0  0  0  0  0  0  0  0  0  0
   13.8227   37.0458   35.5781 N   0  0  0  0  0  0  0  0  0  0  0  0
   16.1637   34.7593   33.1547 C   0  0  0  0  0  0  0  0  0  0  0  0
   15.6516   35.3493   35.4130 C   0  0  0  0  0  0  0  0  0  0  0  0
   16.3792   34.6310   34.5042 N   0  0  0  0  0  0  0  0  0  0  0  0
   15.9002   35.1934   36.8089 N   0  0  0  0  0  0  0  0  0  0  0  0
    9.0243   45.4685   33.6758 H   0  0  0  0  0  0  0  0  0  0  0  0
   10.7940   46.9817   33.1424 H   0  0  0  0  0  0  0  0  0  0  0  0
   11.1198   46.1581   34.5441 H   0  0  0  0  0  0  0  0  0  0  0  0
   10.7436   44.6522   31.2213 H   0  0  0  0  0  0  0  0  0  0  0  0
    9.0548   44.1336   31.4783 H   0  0  0  0  0  0  0  0  0  0  0  0
    7.2206   45.9098   31.7189 H   0  0  0  0  0  0  0  0  0  0  0  0
   11.1730   46.8361   30.2671 H   0  0  0  0  0  0  0  0  0  0  0  0
    6.3685   47.9894   30.7130 H   0  0  0  0  0  0  0  0  0  0  0  0
   10.3275   48.9006   29.2662 H   0  0  0  0  0  0  0  0  0  0  0  0
    7.8228   51.5538   28.3118 H   0  0  0  0  0  0  0  0  0  0  0  0
    8.9370   50.2619   27.7269 H   0  0  0  0  0  0  0  0  0  0  0  0
    9.2963   51.1555   29.2723 H   0  0  0  0  0  0  0  0  0  0  0  0
   11.3834   41.5432   31.4658 H   0  0  0  0  0  0  0  0  0  0  0  0
    9.8222   40.7218   31.7582 H   0  0  0  0  0  0  0  0  0  0  0  0
   11.6981   39.5023   30.3473 H   0  0  0  0  0  0  0  0  0  0  0  0
   10.1090   38.2773   32.6628 H   0  0  0  0  0  0  0  0  0  0  0  0
   13.6670   37.4557   31.2213 H   0  0  0  0  0  0  0  0  0  0  0  0
    8.9778   37.4159   30.9531 H   0  0  0  0  0  0  0  0  0  0  0  0
   11.2860   36.3046   32.5178 H   0  0  0  0  0  0  0  0  0  0  0  0
   10.8690   35.6922   30.4658 H   0  0  0  0  0  0  0  0  0  0  0  0
   12.3356   38.3588   34.7441 H   0  0  0  0  0  0  0  0  0  0  0  0
   16.7571   34.1787   32.4620 H   0  0  0  0  0  0  0  0  0  0  0  0
   16.6360   34.5315   37.1414 H   0  0  0  0  0  0  0  0  0  0  0  0
   15.3530   35.7357   37.5137 H   0  0  0  0  0  0  0  0  0  0  0  0
  1  2  2  0
  1  3  1  0
  3  4  1  0
  4  5  1  0
  6  1  1  0
  7  6  1  0
  6  8  1  0
  8  9  1  0
  9 10  2  0
 11  9  1  0
 10 12  1  0
 13 11  2  0
 12 14  2  0
 14 13  1  0
 14 15  1  0
 15 16  1  0
  4 17  2  0
  4 18  1  0
 19 18  1  0
 19 20  1  0
 20 21  1  0
 20 22  1  0
 21 23  1  0
 22 24  1  0
 22 25  1  0
 25 23  1  0
 23 26  1  0
 25 27  1  0
 28 26  1  0
 29 26  1  0
 30 28  2  0
 28 31  1  0
 32 29  2  0
 33 30  1  0
 31 34  2  0
 31 32  1  0
 35 33  2  0
 35 34  1  0
 34 36  1  0
  6 37  1  1
  7 38  1  0
  7 39  1  0
  8 40  1  0
  8 41  1  0
 10 42  1  0
 11 43  1  0
 12 44  1  0
 13 45  1  0
 16 46  1  0
 16 47  1  0
 16 48  1  0
 19 49  1  0
 19 50  1  0
 20 51  1  0
 22 52  1  0
 23 53  1  0
 24 54  1  0
 25 55  1  0
 27 56  1  0
 29 57  1  0
 33 58  1  0
 36 59  1  0
 36 60  1  0
M  CHG  1   5  -1
M  END
>  <EmbedRMS>  (68) 
0.08894584445482191

$$$$

     RDKit          3D

 60 63  0  0  0  0  0  0  0  0999 V2000
   10.2871   43.7692   33.7895 C   0  0  0  0  0  0  0  0  0  0  0  0
   11.4140   43.5805   34.3359 O   0  0  0  0  0  0  0  0  0  0  0  0
    9.3643   42.7312   33.6952 O   0  0  0  0  0  0  0  0  0  0  0  0
    9.8823   41.2338   34.2826 P   0  0  0  0  0  5  0  0  0  0  0  0
   10.3619   41.4721   35.8732 O   0  0  0  0  0  1  0  0  0  0  0  0
    9.9370   45.1299   33.2926 C   0  0  1  0  0  0  0  0  0  0  0  0
   11.0773   46.0315   33.4640 N   0  0  0  0  0  0  0  0  0  0  0  0
    9.4235   45.1279   31.8321 C   0  0  0  0  0  0  0  0  0  0  0  0
   10.2818   44.3625   30.8481 C   0  0  0  0  0  0  0  0  0  0  0  0
    9.7208   43.3140   30.0991 C   0  0  0  0  0  0  0  0  0  0  0  0
   11.6125   44.7382   30.6012 C   0  0  0  0  0  0  0  0  0  0  0  0
   10.4839   42.6368   29.1439 C   0  0  0  0  0  0  0  0  0  0  0  0
   12.3804   44.0493   29.6571 C   0  0  0  0  0  0  0  0  0  0  0  0
   11.8196   42.9874   28.9227 C   0  0  0  0  0  0  0  0  0  0  0  0
   12.5504   42.2612   27.9710 O   0  0  0  0  0  0  0  0  0  0  0  0
   13.9205   42.4936   27.6617 C   0  0  0  0  0  0  0  0  0  0  0  0
    8.8045   40.1915   34.2086 O   0  0  0  0  0  0  0  0  0  0  0  0
   11.2365   40.7804   33.3754 O   0  0  0  0  0  0  0  0  0  0  0  0
   10.9267   40.6864   32.0003 C   0  0  0  0  0  0  0  0  0  0  0  0
   11.5194   39.3783   31.4412 C   0  0  0  0  0  0  0  0  0  0  0  0
   12.7506   39.0839   32.0723 O   0  0  0  0  0  0  0  0  0  0  0  0
   10.6053   38.1890   31.6677 C   0  0  0  0  0  0  0  0  0  0  0  0
   12.9349   37.6776   32.0278 C   0  0  0  0  0  0  0  0  0  0  0  0
    9.6388   38.0953   30.6490 O   0  0  0  0  0  0  0  0  0  0  0  0
   11.5754   37.0137   31.7059 C   0  0  0  0  0  0  0  0  0  0  0  0
   13.4908   37.2168   33.3232 N   0  0  0  0  0  0  0  0  0  0  0  0
   11.6218   36.3377   30.4686 O   0  0  0  0  0  0  0  0  0  0  0  0
   14.4766   36.3268   33.5728 C   0  0  0  0  0  0  0  0  0  0  0  0
   13.1181   37.6312   34.5683 C   0  0  0  0  0  0  0  0  0  0  0  0
   15.2067   35.6134   32.6740 N   0  0  0  0  0  0  0  0  0  0  0  0
   14.6736   36.2275   34.9182 C   0  0  0  0  0  0  0  0  0  0  0  0
   13.8227   37.0457   35.5780 N   0  0  0  0  0  0  0  0  0  0  0  0
   16.1640   34.7591   33.1549 C   0  0  0  0  0  0  0  0  0  0  0  0
   15.6518   35.3492   35.4132 C   0  0  0  0  0  0  0  0  0  0  0  0
   16.3794   34.6309   34.5044 N   0  0  0  0  0  0  0  0  0  0  0  0
   15.9003   35.1934   36.8091 N   0  0  0  0  0  0  0  0  0  0  0  0
    9.1039   45.5034   33.9306 H   0  0  0  0  0  0  0  0  0  0  0  0
   10.8071   46.9808   33.1178 H   0  0  0  0  0  0  0  0  0  0  0  0
   11.2569   46.1519   34.4882 H   0  0  0  0  0  0  0  0  0  0  0  0
    9.3195   46.1739   31.4713 H   0  0  0  0  0  0  0  0  0  0  0  0
    8.3931   44.7083   31.8374 H   0  0  0  0  0  0  0  0  0  0  0  0
    8.6912   43.0161   30.2533 H   0  0  0  0  0  0  0  0  0  0  0  0
   12.0586   45.5704   31.1277 H   0  0  0  0  0  0  0  0  0  0  0  0
   10.0390   41.8246   28.5831 H   0  0  0  0  0  0  0  0  0  0  0  0
   13.4053   44.3561   29.4998 H   0  0  0  0  0  0  0  0  0  0  0  0
   14.0537   43.5234   27.2679 H   0  0  0  0  0  0  0  0  0  0  0  0
   14.2442   41.7715   26.8845 H   0  0  0  0  0  0  0  0  0  0  0  0
   14.5463   42.3462   28.5672 H   0  0  0  0  0  0  0  0  0  0  0  0
   11.4330   41.5332   31.4960 H   0  0  0  0  0  0  0  0  0  0  0  0
    9.8411   40.7443   31.7489 H   0  0  0  0  0  0  0  0  0  0  0  0
   11.6993   39.5059   30.3484 H   0  0  0  0  0  0  0  0  0  0  0  0
   10.1098   38.2798   32.6633 H   0  0  0  0  0  0  0  0  0  0  0  0
   13.6671   37.4511   31.2209 H   0  0  0  0  0  0  0  0  0  0  0  0
    8.9773   37.4209   30.9535 H   0  0  0  0  0  0  0  0  0  0  0  0
   11.2847   36.3053   32.5180 H   0  0  0  0  0  0  0  0  0  0  0  0
   10.8660   35.6941   30.4657 H   0  0  0  0  0  0  0  0  0  0  0  0
   12.3355   38.3583   34.7435 H   0  0  0  0  0  0  0  0  0  0  0  0
   16.7574   34.1784   32.4623 H   0  0  0  0  0  0  0  0  0  0  0  0
   15.3530   35.7358   37.5138 H   0  0  0  0  0  0  0  0  0  0  0  0
   16.6361   34.5316   37.1417 H   0  0  0  0  0  0  0  0  0  0  0  0
  1  2  2  0
  1  3  1  0
  3  4  1  0
  4  5  1  0
  6  1  1  0
  7  6  1  0
  6  8  1  0
  8  9  1  0
  9 10  2  0
 11  9  1  0
 10 12  1  0
 13 11  2  0
 12 14  2  0
 14 13  1  0
 14 15  1  0
 15 16  1  0
  4 17  2  0
  4 18  1  0
 19 18  1  0
 19 20  1  0
 20 21  1  0
 20 22  1  0
 21 23  1  0
 22 24  1  0
 22 25  1  0
 25 23  1  0
 23 26  1  0
 25 27  1  0
 28 26  1  0
 29 26  1  0
 30 28  2  0
 28 31  1  0
 32 29  2  0
 33 30  1  0
 31 34  2  0
 31 32  1  0
 35 33  2  0
 35 34  1  0
 34 36  1  0
  6 37  1  1
  7 38  1  0
  7 39  1  0
  8 40  1  0
  8 41  1  0
 10 42  1  0
 11 43  1  0
 12 44  1  0
 13 45  1  0
 16 46  1  0
 16 47  1  0
 16 48  1  0
 19 49  1  0
 19 50  1  0
 20 51  1  0
 22 52  1  0
 23 53  1  0
 24 54  1  0
 25 55  1  0
 27 56  1  0
 29 57  1  0
 33 58  1  0
 36 59  1  0
 36 60  1  0
M  CHG  1   5  -1
M  END
>  <EmbedRMS>  (69) 
0.09133979550259388

$$$$

     RDKit          3D

 60 63  0  0  0  0  0  0  0  0999 V2000
   10.3000   43.7682   33.7924 C   0  0  0  0  0  0  0  0  0  0  0  0
   11.4162   43.5823   34.3593 O   0  0  0  0  0  0  0  0  0  0  0  0
    9.3694   42.7352   33.7054 O   0  0  0  0  0  0  0  0  0  0  0  0
    9.8862   41.2351   34.2832 P   0  0  0  0  0  5  0  0  0  0  0  0
   10.3698   41.4669   35.8733 O   0  0  0  0  0  1  0  0  0  0  0  0
    9.9796   45.1072   33.2191 C   0  0  1  0  0  0  0  0  0  0  0  0
   11.0353   46.0791   33.5234 N   0  0  0  0  0  0  0  0  0  0  0  0
    9.6910   45.0375   31.6962 C   0  0  0  0  0  0  0  0  0  0  0  0
   10.8941   45.2649   30.8027 C   0  0  0  0  0  0  0  0  0  0  0  0
   12.0151   44.4227   30.8723 C   0  0  0  0  0  0  0  0  0  0  0  0
   10.8862   46.3082   29.8612 C   0  0  0  0  0  0  0  0  0  0  0  0
   13.1077   44.6225   30.0248 C   0  0  0  0  0  0  0  0  0  0  0  0
   11.9791   46.5077   29.0123 C   0  0  0  0  0  0  0  0  0  0  0  0
   13.1012   45.6619   29.0889 C   0  0  0  0  0  0  0  0  0  0  0  0
   14.2219   45.8205   28.2603 O   0  0  0  0  0  0  0  0  0  0  0  0
   14.3503   46.8328   27.2673 C   0  0  0  0  0  0  0  0  0  0  0  0
    8.8074   40.1933   34.2080 O   0  0  0  0  0  0  0  0  0  0  0  0
   11.2357   40.7941   33.3608 O   0  0  0  0  0  0  0  0  0  0  0  0
   10.9027   40.6734   31.9911 C   0  0  0  0  0  0  0  0  0  0  0  0
   11.5138   39.3713   31.4400 C   0  0  0  0  0  0  0  0  0  0  0  0
   12.7445   39.0853   32.0768 O   0  0  0  0  0  0  0  0  0  0  0  0
   10.6058   38.1792   31.6663 C   0  0  0  0  0  0  0  0  0  0  0  0
   12.9370   37.6802   32.0293 C   0  0  0  0  0  0  0  0  0  0  0  0
    9.6394   38.0832   30.6480 O   0  0  0  0  0  0  0  0  0  0  0  0
   11.5798   37.0099   31.7041 C   0  0  0  0  0  0  0  0  0  0  0  0
   13.4916   37.2179   33.3241 N   0  0  0  0  0  0  0  0  0  0  0  0
   11.6141   36.3372   30.4662 O   0  0  0  0  0  0  0  0  0  0  0  0
   14.4767   36.3270   33.5732 C   0  0  0  0  0  0  0  0  0  0  0  0
   13.1185   37.6315   34.5691 C   0  0  0  0  0  0  0  0  0  0  0  0
   15.2067   35.6138   32.6741 N   0  0  0  0  0  0  0  0  0  0  0  0
   14.6737   36.2273   34.9185 C   0  0  0  0  0  0  0  0  0  0  0  0
   13.8229   37.0455   35.5786 N   0  0  0  0  0  0  0  0  0  0  0  0
   16.1638   34.7592   33.1549 C   0  0  0  0  0  0  0  0  0  0  0  0
   15.6518   35.3490   35.4133 C   0  0  0  0  0  0  0  0  0  0  0  0
   16.3793   34.6308   34.5044 N   0  0  0  0  0  0  0  0  0  0  0  0
   15.9005   35.1932   36.8091 N   0  0  0  0  0  0  0  0  0  0  0  0
    9.0441   45.4464   33.7176 H   0  0  0  0  0  0  0  0  0  0  0  0
   11.0541   46.2449   34.5565 H   0  0  0  0  0  0  0  0  0  0  0  0
   11.9768   45.7173   33.2479 H   0  0  0  0  0  0  0  0  0  0  0  0
    9.2308   44.0613   31.4289 H   0  0  0  0  0  0  0  0  0  0  0  0
    8.9162   45.8026   31.4683 H   0  0  0  0  0  0  0  0  0  0  0  0
   12.0595   43.6309   31.6028 H   0  0  0  0  0  0  0  0  0  0  0  0
   10.0326   46.9695   29.7799 H   0  0  0  0  0  0  0  0  0  0  0  0
   13.9671   43.9681   30.0989 H   0  0  0  0  0  0  0  0  0  0  0  0
   11.9404   47.3205   28.3000 H   0  0  0  0  0  0  0  0  0  0  0  0
   14.3003   47.8376   27.7376 H   0  0  0  0  0  0  0  0  0  0  0  0
   15.3330   46.7246   26.7642 H   0  0  0  0  0  0  0  0  0  0  0  0
   13.5479   46.7260   26.5071 H   0  0  0  0  0  0  0  0  0  0  0  0
   11.3622   41.5195   31.4476 H   0  0  0  0  0  0  0  0  0  0  0  0
    9.8108   40.7002   31.7622 H   0  0  0  0  0  0  0  0  0  0  0  0
   11.6973   39.4948   30.3474 H   0  0  0  0  0  0  0  0  0  0  0  0
   10.1087   38.2674   32.6615 H   0  0  0  0  0  0  0  0  0  0  0  0
   13.6719   37.4601   31.2232 H   0  0  0  0  0  0  0  0  0  0  0  0
    9.0033   37.3770   30.9342 H   0  0  0  0  0  0  0  0  0  0  0  0
   11.2730   36.2998   32.5076 H   0  0  0  0  0  0  0  0  0  0  0  0
   12.1481   35.5131   30.6114 H   0  0  0  0  0  0  0  0  0  0  0  0
   12.3361   38.3589   34.7445 H   0  0  0  0  0  0  0  0  0  0  0  0
   16.7572   34.1786   32.4621 H   0  0  0  0  0  0  0  0  0  0  0  0
   16.6364   34.5313   37.1416 H   0  0  0  0  0  0  0  0  0  0  0  0
   15.3533   35.7355   37.5140 H   0  0  0  0  0  0  0  0  0  0  0  0
  1  2  2  0
  1  3  1  0
  3  4  1  0
  4  5  1  0
  6  1  1  0
  7  6  1  0
  6  8  1  0
  8  9  1  0
  9 10  2  0
 11  9  1  0
 10 12  1  0
 13 11  2  0
 12 14  2  0
 14 13  1  0
 14 15  1  0
 15 16  1  0
  4 17  2  0
  4 18  1  0
 19 18  1  0
 19 20  1  0
 20 21  1  0
 20 22  1  0
 21 23  1  0
 22 24  1  0
 22 25  1  0
 25 23  1  0
 23 26  1  0
 25 27  1  0
 28 26  1  0
 29 26  1  0
 30 28  2  0
 28 31  1  0
 32 29  2  0
 33 30  1  0
 31 34  2  0
 31 32  1  0
 35 33  2  0
 35 34  1  0
 34 36  1  0
  6 37  1  1
  7 38  1  0
  7 39  1  0
  8 40  1  0
  8 41  1  0
 10 42  1  0
 11 43  1  0
 12 44  1  0
 13 45  1  0
 16 46  1  0
 16 47  1  0
 16 48  1  0
 19 49  1  0
 19 50  1  0
 20 51  1  0
 22 52  1  0
 23 53  1  0
 24 54  1  0
 25 55  1  0
 27 56  1  0
 29 57  1  0
 33 58  1  0
 36 59  1  0
 36 60  1  0
M  CHG  1   5  -1
M  END
>  <EmbedRMS>  (70) 
0.09102941903369077

$$$$

     RDKit          3D

 60 63  0  0  0  0  0  0  0  0999 V2000
   10.3001   43.7681   33.7923 C   0  0  0  0  0  0  0  0  0  0  0  0
   11.4163   43.5824   34.3592 O   0  0  0  0  0  0  0  0  0  0  0  0
    9.3698   42.7348   33.7050 O   0  0  0  0  0  0  0  0  0  0  0  0
    9.8865   41.2349   34.2836 P   0  0  0  0  0  5  0  0  0  0  0  0
   10.3686   41.4672   35.8741 O   0  0  0  0  0  1  0  0  0  0  0  0
    9.9789   45.1076   33.2203 C   0  0  1  0  0  0  0  0  0  0  0  0
   11.0356   46.0789   33.5226 N   0  0  0  0  0  0  0  0  0  0  0  0
    9.6856   45.0394   31.6983 C   0  0  0  0  0  0  0  0  0  0  0  0
   10.8859   45.2659   30.8007 C   0  0  0  0  0  0  0  0  0  0  0  0
   10.8724   46.3043   29.8542 C   0  0  0  0  0  0  0  0  0  0  0  0
   12.0088   44.4260   30.8700 C   0  0  0  0  0  0  0  0  0  0  0  0
   11.9622   46.5004   29.0012 C   0  0  0  0  0  0  0  0  0  0  0  0
   13.0990   44.6225   30.0180 C   0  0  0  0  0  0  0  0  0  0  0  0
   13.0818   45.6648   29.0730 C   0  0  0  0  0  0  0  0  0  0  0  0
   14.1495   45.9026   28.1948 O   0  0  0  0  0  0  0  0  0  0  0  0
   15.3464   45.1323   28.1580 C   0  0  0  0  0  0  0  0  0  0  0  0
    8.8080   40.1930   34.2073 O   0  0  0  0  0  0  0  0  0  0  0  0
   11.2375   40.7934   33.3637 O   0  0  0  0  0  0  0  0  0  0  0  0
   10.9092   40.6787   31.9928 C   0  0  0  0  0  0  0  0  0  0  0  0
   11.5135   39.3740   31.4402 C   0  0  0  0  0  0  0  0  0  0  0  0
   12.7448   39.0844   32.0743 O   0  0  0  0  0  0  0  0  0  0  0  0
   10.6020   38.1832   31.6674 C   0  0  0  0  0  0  0  0  0  0  0  0
   12.9333   37.6786   32.0282 C   0  0  0  0  0  0  0  0  0  0  0  0
    9.6388   38.0726   30.6460 O   0  0  0  0  0  0  0  0  0  0  0  0
   11.5748   37.0119   31.7054 C   0  0  0  0  0  0  0  0  0  0  0  0
   13.4904   37.2174   33.3233 N   0  0  0  0  0  0  0  0  0  0  0  0
   11.6226   36.3360   30.4683 O   0  0  0  0  0  0  0  0  0  0  0  0
   14.4762   36.3271   33.5726 C   0  0  0  0  0  0  0  0  0  0  0  0
   13.1179   37.6314   34.5685 C   0  0  0  0  0  0  0  0  0  0  0  0
   15.2064   35.6137   32.6738 N   0  0  0  0  0  0  0  0  0  0  0  0
   14.6735   36.2276   34.9181 C   0  0  0  0  0  0  0  0  0  0  0  0
   13.8226   37.0458   35.5781 N   0  0  0  0  0  0  0  0  0  0  0  0
   16.1637   34.7593   33.1547 C   0  0  0  0  0  0  0  0  0  0  0  0
   15.6516   35.3493   35.4130 C   0  0  0  0  0  0  0  0  0  0  0  0
   16.3792   34.6310   34.5042 N   0  0  0  0  0  0  0  0  0  0  0  0
   15.9002   35.1935   36.8089 N   0  0  0  0  0  0  0  0  0  0  0  0
    9.0449   45.4467   33.7218 H   0  0  0  0  0  0  0  0  0  0  0  0
   11.9764   45.7168   33.2453 H   0  0  0  0  0  0  0  0  0  0  0  0
   11.0565   46.2446   34.5557 H   0  0  0  0  0  0  0  0  0  0  0  0
    9.2233   44.0639   31.4318 H   0  0  0  0  0  0  0  0  0  0  0  0
    8.9112   45.8057   31.4736 H   0  0  0  0  0  0  0  0  0  0  0  0
   10.0175   46.9639   29.7719 H   0  0  0  0  0  0  0  0  0  0  0  0
   12.0566   43.6381   31.6044 H   0  0  0  0  0  0  0  0  0  0  0  0
   11.9358   47.3058   28.2780 H   0  0  0  0  0  0  0  0  0  0  0  0
   13.9505   43.9616   30.1054 H   0  0  0  0  0  0  0  0  0  0  0  0
   15.1123   44.0743   27.9150 H   0  0  0  0  0  0  0  0  0  0  0  0
   16.0147   45.5381   27.3712 H   0  0  0  0  0  0  0  0  0  0  0  0
   15.8699   45.1934   29.1355 H   0  0  0  0  0  0  0  0  0  0  0  0
    9.8197   40.7224   31.7592 H   0  0  0  0  0  0  0  0  0  0  0  0
   11.3805   41.5214   31.4543 H   0  0  0  0  0  0  0  0  0  0  0  0
   11.6948   39.4971   30.3473 H   0  0  0  0  0  0  0  0  0  0  0  0
   10.1082   38.2557   32.6661 H   0  0  0  0  0  0  0  0  0  0  0  0
   13.6661   37.4548   31.2211 H   0  0  0  0  0  0  0  0  0  0  0  0
    8.8898   38.6753   30.8916 H   0  0  0  0  0  0  0  0  0  0  0  0
   11.2869   36.3010   32.5164 H   0  0  0  0  0  0  0  0  0  0  0  0
   10.8553   35.7061   30.4574 H   0  0  0  0  0  0  0  0  0  0  0  0
   12.3353   38.3585   34.7440 H   0  0  0  0  0  0  0  0  0  0  0  0
   16.7571   34.1787   32.4620 H   0  0  0  0  0  0  0  0  0  0  0  0
   16.6360   34.5316   37.1415 H   0  0  0  0  0  0  0  0  0  0  0  0
   15.3530   35.7358   37.5137 H   0  0  0  0  0  0  0  0  0  0  0  0
  1  2  2  0
  1  3  1  0
  3  4  1  0
  4  5  1  0
  6  1  1  0
  7  6  1  0
  6  8  1  0
  8  9  1  0
  9 10  2  0
 11  9  1  0
 10 12  1  0
 13 11  2  0
 12 14  2  0
 14 13  1  0
 14 15  1  0
 15 16  1  0
  4 17  2  0
  4 18  1  0
 19 18  1  0
 19 20  1  0
 20 21  1  0
 20 22  1  0
 21 23  1  0
 22 24  1  0
 22 25  1  0
 25 23  1  0
 23 26  1  0
 25 27  1  0
 28 26  1  0
 29 26  1  0
 30 28  2  0
 28 31  1  0
 32 29  2  0
 33 30  1  0
 31 34  2  0
 31 32  1  0
 35 33  2  0
 35 34  1  0
 34 36  1  0
  6 37  1  1
  7 38  1  0
  7 39  1  0
  8 40  1  0
  8 41  1  0
 10 42  1  0
 11 43  1  0
 12 44  1  0
 13 45  1  0
 16 46  1  0
 16 47  1  0
 16 48  1  0
 19 49  1  0
 19 50  1  0
 20 51  1  0
 22 52  1  0
 23 53  1  0
 24 54  1  0
 25 55  1  0
 27 56  1  0
 29 57  1  0
 33 58  1  0
 36 59  1  0
 36 60  1  0
M  CHG  1   5  -1
M  END
>  <EmbedRMS>  (71) 
0.09159059647917682

$$$$

     RDKit          3D

 60 63  0  0  0  0  0  0  0  0999 V2000
   10.2904   43.7683   33.8032 C   0  0  0  0  0  0  0  0  0  0  0  0
   11.4117   43.5808   34.3602 O   0  0  0  0  0  0  0  0  0  0  0  0
    9.3641   42.7329   33.7098 O   0  0  0  0  0  0  0  0  0  0  0  0
    9.8839   41.2334   34.2858 P   0  0  0  0  0  5  0  0  0  0  0  0
   10.3668   41.4655   35.8759 O   0  0  0  0  0  1  0  0  0  0  0  0
    9.9696   45.1051   33.2284 C   0  0  1  0  0  0  0  0  0  0  0  0
   11.0569   46.0522   33.4895 N   0  0  0  0  0  0  0  0  0  0  0  0
    9.7163   44.9862   31.7147 C   0  0  0  0  0  0  0  0  0  0  0  0
    9.2972   46.3074   31.1227 C   0  0  0  0  0  0  0  0  0  0  0  0
   10.2445   47.1493   30.5201 C   0  0  0  0  0  0  0  0  0  0  0  0
    7.9613   46.7282   31.2098 C   0  0  0  0  0  0  0  0  0  0  0  0
    9.8571   48.3863   29.9972 C   0  0  0  0  0  0  0  0  0  0  0  0
    7.5742   47.9655   30.6865 C   0  0  0  0  0  0  0  0  0  0  0  0
    8.5237   48.8053   30.0734 C   0  0  0  0  0  0  0  0  0  0  0  0
    8.1858   50.0552   29.5336 O   0  0  0  0  0  0  0  0  0  0  0  0
    6.8728   50.6059   29.5423 C   0  0  0  0  0  0  0  0  0  0  0  0
    8.8066   40.1905   34.2089 O   0  0  0  0  0  0  0  0  0  0  0  0
   11.2356   40.7927   33.3671 O   0  0  0  0  0  0  0  0  0  0  0  0
   10.9121   40.6870   31.9947 C   0  0  0  0  0  0  0  0  0  0  0  0
   11.5163   39.3804   31.4412 C   0  0  0  0  0  0  0  0  0  0  0  0
   12.7482   39.0893   32.0767 O   0  0  0  0  0  0  0  0  0  0  0  0
   10.6048   38.1880   31.6659 C   0  0  0  0  0  0  0  0  0  0  0  0
   12.9410   37.6834   32.0279 C   0  0  0  0  0  0  0  0  0  0  0  0
    9.6357   38.0932   30.6501 O   0  0  0  0  0  0  0  0  0  0  0  0
   11.5826   37.0183   31.6937 C   0  0  0  0  0  0  0  0  0  0  0  0
   13.4908   37.2179   33.3239 N   0  0  0  0  0  0  0  0  0  0  0  0
   11.6141   36.3183   30.4676 O   0  0  0  0  0  0  0  0  0  0  0  0
   14.4762   36.3271   33.5733 C   0  0  0  0  0  0  0  0  0  0  0  0
   13.1179   37.6318   34.5689 C   0  0  0  0  0  0  0  0  0  0  0  0
   15.2066   35.6141   32.6743 N   0  0  0  0  0  0  0  0  0  0  0  0
   14.6731   36.2273   34.9186 C   0  0  0  0  0  0  0  0  0  0  0  0
   13.8223   37.0456   35.5785 N   0  0  0  0  0  0  0  0  0  0  0  0
   16.1638   34.7595   33.1550 C   0  0  0  0  0  0  0  0  0  0  0  0
   15.6515   35.3491   35.4134 C   0  0  0  0  0  0  0  0  0  0  0  0
   16.3792   34.6310   34.5045 N   0  0  0  0  0  0  0  0  0  0  0  0
   15.9002   35.1933   36.8092 N   0  0  0  0  0  0  0  0  0  0  0  0
    9.0441   45.4767   33.7211 H   0  0  0  0  0  0  0  0  0  0  0  0
   11.1829   46.1617   34.5226 H   0  0  0  0  0  0  0  0  0  0  0  0
   11.9530   45.6972   33.0806 H   0  0  0  0  0  0  0  0  0  0  0  0
    8.9147   44.2381   31.5255 H   0  0  0  0  0  0  0  0  0  0  0  0
   10.6321   44.6105   31.2059 H   0  0  0  0  0  0  0  0  0  0  0  0
   11.2833   46.8493   30.4571 H   0  0  0  0  0  0  0  0  0  0  0  0
    7.2198   46.0975   31.6848 H   0  0  0  0  0  0  0  0  0  0  0  0
   10.5976   49.0247   29.5323 H   0  0  0  0  0  0  0  0  0  0  0  0
    6.5368   48.2602   30.7662 H   0  0  0  0  0  0  0  0  0  0  0  0
    6.1782   49.9459   28.9809 H   0  0  0  0  0  0  0  0  0  0  0  0
    6.8934   51.6000   29.0507 H   0  0  0  0  0  0  0  0  0  0  0  0
    6.5190   50.7331   30.5872 H   0  0  0  0  0  0  0  0  0  0  0  0
   11.3829   41.5448   31.4684 H   0  0  0  0  0  0  0  0  0  0  0  0
    9.8219   40.7217   31.7588 H   0  0  0  0  0  0  0  0  0  0  0  0
   11.6989   39.5073   30.3491 H   0  0  0  0  0  0  0  0  0  0  0  0
   10.1116   38.2724   32.6631 H   0  0  0  0  0  0  0  0  0  0  0  0
   13.6814   37.4642   31.2269 H   0  0  0  0  0  0  0  0  0  0  0  0
    9.0036   37.3829   30.9347 H   0  0  0  0  0  0  0  0  0  0  0  0
   11.2846   36.3045   32.4929 H   0  0  0  0  0  0  0  0  0  0  0  0
   11.8848   36.9593   29.7589 H   0  0  0  0  0  0  0  0  0  0  0  0
   12.3364   38.3601   34.7442 H   0  0  0  0  0  0  0  0  0  0  0  0
   16.7573   34.1791   32.4622 H   0  0  0  0  0  0  0  0  0  0  0  0
   16.6362   34.5317   37.1417 H   0  0  0  0  0  0  0  0  0  0  0  0
   15.3529   35.7356   37.5141 H   0  0  0  0  0  0  0  0  0  0  0  0
  1  2  2  0
  1  3  1  0
  3  4  1  0
  4  5  1  0
  6  1  1  0
  7  6  1  0
  6  8  1  0
  8  9  1  0
  9 10  2  0
 11  9  1  0
 10 12  1  0
 13 11  2  0
 12 14  2  0
 14 13  1  0
 14 15  1  0
 15 16  1  0
  4 17  2  0
  4 18  1  0
 19 18  1  0
 19 20  1  0
 20 21  1  0
 20 22  1  0
 21 23  1  0
 22 24  1  0
 22 25  1  0
 25 23  1  0
 23 26  1  0
 25 27  1  0
 28 26  1  0
 29 26  1  0
 30 28  2  0
 28 31  1  0
 32 29  2  0
 33 30  1  0
 31 34  2  0
 31 32  1  0
 35 33  2  0
 35 34  1  0
 34 36  1  0
  6 37  1  1
  7 38  1  0
  7 39  1  0
  8 40  1  0
  8 41  1  0
 10 42  1  0
 11 43  1  0
 12 44  1  0
 13 45  1  0
 16 46  1  0
 16 47  1  0
 16 48  1  0
 19 49  1  0
 19 50  1  0
 20 51  1  0
 22 52  1  0
 23 53  1  0
 24 54  1  0
 25 55  1  0
 27 56  1  0
 29 57  1  0
 33 58  1  0
 36 59  1  0
 36 60  1  0
M  CHG  1   5  -1
M  END
>  <EmbedRMS>  (72) 
0.08827713341391873

$$$$

     RDKit          3D

 60 63  0  0  0  0  0  0  0  0999 V2000
   10.2941   43.7720   33.7964 C   0  0  0  0  0  0  0  0  0  0  0  0
   11.4140   43.5897   34.3580 O   0  0  0  0  0  0  0  0  0  0  0  0
    9.3672   42.7358   33.7087 O   0  0  0  0  0  0  0  0  0  0  0  0
    9.8871   41.2359   34.2845 P   0  0  0  0  0  5  0  0  0  0  0  0
   10.3697   41.4673   35.8747 O   0  0  0  0  0  1  0  0  0  0  0  0
    9.9760   45.1033   33.2100 C   0  0  1  0  0  0  0  0  0  0  0  0
   11.0441   46.0544   33.5250 N   0  0  0  0  0  0  0  0  0  0  0  0
    9.7486   45.0012   31.6779 C   0  0  0  0  0  0  0  0  0  0  0  0
   10.9942   45.2141   30.8392 C   0  0  0  0  0  0  0  0  0  0  0  0
   11.0109   46.2071   29.8452 C   0  0  0  0  0  0  0  0  0  0  0  0
   12.1333   44.4114   31.0153 C   0  0  0  0  0  0  0  0  0  0  0  0
   12.1454   46.3972   29.0513 C   0  0  0  0  0  0  0  0  0  0  0  0
   13.2677   44.6017   30.2213 C   0  0  0  0  0  0  0  0  0  0  0  0
   13.2807   45.5999   29.2298 C   0  0  0  0  0  0  0  0  0  0  0  0
   14.3936   45.8298   28.4074 O   0  0  0  0  0  0  0  0  0  0  0  0
   15.6111   45.0949   28.4789 C   0  0  0  0  0  0  0  0  0  0  0  0
    8.8093   40.1931   34.2079 O   0  0  0  0  0  0  0  0  0  0  0  0
   11.2379   40.7959   33.3635 O   0  0  0  0  0  0  0  0  0  0  0  0
   10.9098   40.6814   31.9925 C   0  0  0  0  0  0  0  0  0  0  0  0
   11.5149   39.3759   31.4402 C   0  0  0  0  0  0  0  0  0  0  0  0
   12.7456   39.0868   32.0762 O   0  0  0  0  0  0  0  0  0  0  0  0
   10.6043   38.1833   31.6661 C   0  0  0  0  0  0  0  0  0  0  0  0
   12.9358   37.6813   32.0291 C   0  0  0  0  0  0  0  0  0  0  0  0
    9.6416   38.0700   30.6446 O   0  0  0  0  0  0  0  0  0  0  0  0
   11.5772   37.0135   31.7043 C   0  0  0  0  0  0  0  0  0  0  0  0
   13.4909   37.2182   33.3238 N   0  0  0  0  0  0  0  0  0  0  0  0
   11.6115   36.3389   30.4672 O   0  0  0  0  0  0  0  0  0  0  0  0
   14.4762   36.3273   33.5729 C   0  0  0  0  0  0  0  0  0  0  0  0
   13.1181   37.6318   34.5690 C   0  0  0  0  0  0  0  0  0  0  0  0
   15.2063   35.6140   32.6739 N   0  0  0  0  0  0  0  0  0  0  0  0
   14.6734   36.2275   34.9183 C   0  0  0  0  0  0  0  0  0  0  0  0
   13.8227   37.0457   35.5784 N   0  0  0  0  0  0  0  0  0  0  0  0
   16.1636   34.7595   33.1546 C   0  0  0  0  0  0  0  0  0  0  0  0
   15.6516   35.3492   35.4130 C   0  0  0  0  0  0  0  0  0  0  0  0
   16.3791   34.6310   34.5041 N   0  0  0  0  0  0  0  0  0  0  0  0
   15.9003   35.1933   36.8089 N   0  0  0  0  0  0  0  0  0  0  0  0
    9.0287   45.4512   33.6814 H   0  0  0  0  0  0  0  0  0  0  0  0
   10.7870   46.9814   33.1136 H   0  0  0  0  0  0  0  0  0  0  0  0
   11.0604   46.2026   34.5610 H   0  0  0  0  0  0  0  0  0  0  0  0
    8.9860   45.7632   31.4039 H   0  0  0  0  0  0  0  0  0  0  0  0
    9.3005   44.0200   31.4077 H   0  0  0  0  0  0  0  0  0  0  0  0
   10.1454   46.8368   29.6810 H   0  0  0  0  0  0  0  0  0  0  0  0
   12.1555   43.6473   31.7760 H   0  0  0  0  0  0  0  0  0  0  0  0
   12.1418   47.1681   28.2910 H   0  0  0  0  0  0  0  0  0  0  0  0
   14.1285   43.9686   30.3877 H   0  0  0  0  0  0  0  0  0  0  0  0
   16.0712   45.2150   29.4825 H   0  0  0  0  0  0  0  0  0  0  0  0
   15.4213   44.0206   28.2712 H   0  0  0  0  0  0  0  0  0  0  0  0
   16.3155   45.4852   27.7162 H   0  0  0  0  0  0  0  0  0  0  0  0
    9.8201   40.7233   31.7597 H   0  0  0  0  0  0  0  0  0  0  0  0
   11.3790   41.5280   31.4550 H   0  0  0  0  0  0  0  0  0  0  0  0
   11.6976   39.4995   30.3475 H   0  0  0  0  0  0  0  0  0  0  0  0
   10.1096   38.2565   32.6644 H   0  0  0  0  0  0  0  0  0  0  0  0
   13.6699   37.4600   31.2226 H   0  0  0  0  0  0  0  0  0  0  0  0
    8.8946   38.6769   30.8863 H   0  0  0  0  0  0  0  0  0  0  0  0
   11.2708   36.3035   32.5083 H   0  0  0  0  0  0  0  0  0  0  0  0
   12.1457   35.5150   30.6135 H   0  0  0  0  0  0  0  0  0  0  0  0
   12.3359   38.3593   34.7446 H   0  0  0  0  0  0  0  0  0  0  0  0
   16.7569   34.1789   32.4618 H   0  0  0  0  0  0  0  0  0  0  0  0
   15.3531   35.7356   37.5138 H   0  0  0  0  0  0  0  0  0  0  0  0
   16.6362   34.5315   37.1414 H   0  0  0  0  0  0  0  0  0  0  0  0
  1  2  2  0
  1  3  1  0
  3  4  1  0
  4  5  1  0
  6  1  1  0
  7  6  1  0
  6  8  1  0
  8  9  1  0
  9 10  2  0
 11  9  1  0
 10 12  1  0
 13 11  2  0
 12 14  2  0
 14 13  1  0
 14 15  1  0
 15 16  1  0
  4 17  2  0
  4 18  1  0
 19 18  1  0
 19 20  1  0
 20 21  1  0
 20 22  1  0
 21 23  1  0
 22 24  1  0
 22 25  1  0
 25 23  1  0
 23 26  1  0
 25 27  1  0
 28 26  1  0
 29 26  1  0
 30 28  2  0
 28 31  1  0
 32 29  2  0
 33 30  1  0
 31 34  2  0
 31 32  1  0
 35 33  2  0
 35 34  1  0
 34 36  1  0
  6 37  1  1
  7 38  1  0
  7 39  1  0
  8 40  1  0
  8 41  1  0
 10 42  1  0
 11 43  1  0
 12 44  1  0
 13 45  1  0
 16 46  1  0
 16 47  1  0
 16 48  1  0
 19 49  1  0
 19 50  1  0
 20 51  1  0
 22 52  1  0
 23 53  1  0
 24 54  1  0
 25 55  1  0
 27 56  1  0
 29 57  1  0
 33 58  1  0
 36 59  1  0
 36 60  1  0
M  CHG  1   5  -1
M  END
>  <EmbedRMS>  (73) 
0.09010564263062477

$$$$

     RDKit          3D

 60 63  0  0  0  0  0  0  0  0999 V2000
   10.2940   43.7721   33.7964 C   0  0  0  0  0  0  0  0  0  0  0  0
   11.4139   43.5898   34.3580 O   0  0  0  0  0  0  0  0  0  0  0  0
    9.3670   42.7360   33.7088 O   0  0  0  0  0  0  0  0  0  0  0  0
    9.8870   41.2360   34.2839 P   0  0  0  0  0  5  0  0  0  0  0  0
   10.3707   41.4671   35.8740 O   0  0  0  0  0  1  0  0  0  0  0  0
    9.9762   45.1033   33.2097 C   0  0  1  0  0  0  0  0  0  0  0  0
   11.0440   46.0545   33.5253 N   0  0  0  0  0  0  0  0  0  0  0  0
    9.7503   45.0008   31.6774 C   0  0  0  0  0  0  0  0  0  0  0  0
   10.9971   45.2128   30.8403 C   0  0  0  0  0  0  0  0  0  0  0  0
   11.0174   46.2085   29.8490 C   0  0  0  0  0  0  0  0  0  0  0  0
   12.1342   44.4070   31.0156 C   0  0  0  0  0  0  0  0  0  0  0  0
   12.1533   46.3981   29.0571 C   0  0  0  0  0  0  0  0  0  0  0  0
   13.2699   44.5968   30.2235 C   0  0  0  0  0  0  0  0  0  0  0  0
   13.2865   45.5977   29.2348 C   0  0  0  0  0  0  0  0  0  0  0  0
   14.4009   45.8271   28.4143 O   0  0  0  0  0  0  0  0  0  0  0  0
   15.6166   45.0891   28.4853 C   0  0  0  0  0  0  0  0  0  0  0  0
    8.8090   40.1934   34.2084 O   0  0  0  0  0  0  0  0  0  0  0  0
   11.2368   40.7962   33.3611 O   0  0  0  0  0  0  0  0  0  0  0  0
   10.9051   40.6775   31.9910 C   0  0  0  0  0  0  0  0  0  0  0  0
   11.5135   39.3733   31.4398 C   0  0  0  0  0  0  0  0  0  0  0  0
   12.7444   39.0848   32.0751 O   0  0  0  0  0  0  0  0  0  0  0  0
   10.6038   38.1825   31.6674 C   0  0  0  0  0  0  0  0  0  0  0  0
   12.9343   37.6788   32.0285 C   0  0  0  0  0  0  0  0  0  0  0  0
    9.6370   38.0880   30.6491 O   0  0  0  0  0  0  0  0  0  0  0  0
   11.5768   37.0106   31.7054 C   0  0  0  0  0  0  0  0  0  0  0  0
   13.4910   37.2177   33.3235 N   0  0  0  0  0  0  0  0  0  0  0  0
   11.6247   36.3361   30.4675 O   0  0  0  0  0  0  0  0  0  0  0  0
   14.4765   36.3271   33.5728 C   0  0  0  0  0  0  0  0  0  0  0  0
   13.1182   37.6315   34.5687 C   0  0  0  0  0  0  0  0  0  0  0  0
   15.2066   35.6137   32.6739 N   0  0  0  0  0  0  0  0  0  0  0  0
   14.6736   36.2276   34.9182 C   0  0  0  0  0  0  0  0  0  0  0  0
   13.8228   37.0457   35.5782 N   0  0  0  0  0  0  0  0  0  0  0  0
   16.1638   34.7592   33.1548 C   0  0  0  0  0  0  0  0  0  0  0  0
   15.6517   35.3492   35.4131 C   0  0  0  0  0  0  0  0  0  0  0  0
   16.3793   34.6309   34.5043 N   0  0  0  0  0  0  0  0  0  0  0  0
   15.9003   35.1934   36.8090 N   0  0  0  0  0  0  0  0  0  0  0  0
    9.0285   45.4512   33.6801 H   0  0  0  0  0  0  0  0  0  0  0  0
   11.0596   46.2028   34.5613 H   0  0  0  0  0  0  0  0  0  0  0  0
   10.7871   46.9815   33.1136 H   0  0  0  0  0  0  0  0  0  0  0  0
    9.3020   44.0198   31.4070 H   0  0  0  0  0  0  0  0  0  0  0  0
    8.9885   45.7632   31.4022 H   0  0  0  0  0  0  0  0  0  0  0  0
   10.1536   46.8409   29.6857 H   0  0  0  0  0  0  0  0  0  0  0  0
   12.1537   43.6408   31.7744 H   0  0  0  0  0  0  0  0  0  0  0  0
   12.1524   47.1711   28.2989 H   0  0  0  0  0  0  0  0  0  0  0  0
   14.1291   43.9613   30.3893 H   0  0  0  0  0  0  0  0  0  0  0  0
   16.0757   45.2055   29.4897 H   0  0  0  0  0  0  0  0  0  0  0  0
   16.3228   45.4797   27.7244 H   0  0  0  0  0  0  0  0  0  0  0  0
   15.4245   44.0158   28.2745 H   0  0  0  0  0  0  0  0  0  0  0  0
   11.3662   41.5261   31.4494 H   0  0  0  0  0  0  0  0  0  0  0  0
    9.8133   40.7065   31.7614 H   0  0  0  0  0  0  0  0  0  0  0  0
   11.6962   39.4963   30.3470 H   0  0  0  0  0  0  0  0  0  0  0  0
   10.1086   38.2716   32.6635 H   0  0  0  0  0  0  0  0  0  0  0  0
   13.6676   37.4559   31.2216 H   0  0  0  0  0  0  0  0  0  0  0  0
    8.9778   37.4109   30.9527 H   0  0  0  0  0  0  0  0  0  0  0  0
   11.2879   36.3007   32.5168 H   0  0  0  0  0  0  0  0  0  0  0  0
   10.8714   35.6895   30.4646 H   0  0  0  0  0  0  0  0  0  0  0  0
   12.3356   38.3586   34.7441 H   0  0  0  0  0  0  0  0  0  0  0  0
   16.7572   34.1786   32.4621 H   0  0  0  0  0  0  0  0  0  0  0  0
   16.6361   34.5315   37.1415 H   0  0  0  0  0  0  0  0  0  0  0  0
   15.3531   35.7357   37.5138 H   0  0  0  0  0  0  0  0  0  0  0  0
  1  2  2  0
  1  3  1  0
  3  4  1  0
  4  5  1  0
  6  1  1  0
  7  6  1  0
  6  8  1  0
  8  9  1  0
  9 10  2  0
 11  9  1  0
 10 12  1  0
 13 11  2  0
 12 14  2  0
 14 13  1  0
 14 15  1  0
 15 16  1  0
  4 17  2  0
  4 18  1  0
 19 18  1  0
 19 20  1  0
 20 21  1  0
 20 22  1  0
 21 23  1  0
 22 24  1  0
 22 25  1  0
 25 23  1  0
 23 26  1  0
 25 27  1  0
 28 26  1  0
 29 26  1  0
 30 28  2  0
 28 31  1  0
 32 29  2  0
 33 30  1  0
 31 34  2  0
 31 32  1  0
 35 33  2  0
 35 34  1  0
 34 36  1  0
  6 37  1  1
  7 38  1  0
  7 39  1  0
  8 40  1  0
  8 41  1  0
 10 42  1  0
 11 43  1  0
 12 44  1  0
 13 45  1  0
 16 46  1  0
 16 47  1  0
 16 48  1  0
 19 49  1  0
 19 50  1  0
 20 51  1  0
 22 52  1  0
 23 53  1  0
 24 54  1  0
 25 55  1  0
 27 56  1  0
 29 57  1  0
 33 58  1  0
 36 59  1  0
 36 60  1  0
M  CHG  1   5  -1
M  END
>  <EmbedRMS>  (74) 
0.08982351304774142

$$$$

     RDKit          3D

 60 63  0  0  0  0  0  0  0  0999 V2000
   10.2880   43.7719   33.8023 C   0  0  0  0  0  0  0  0  0  0  0  0
   11.4129   43.5865   34.3534 O   0  0  0  0  0  0  0  0  0  0  0  0
    9.3633   42.7344   33.7122 O   0  0  0  0  0  0  0  0  0  0  0  0
    9.8849   41.2347   34.2866 P   0  0  0  0  0  5  0  0  0  0  0  0
   10.3679   41.4664   35.8766 O   0  0  0  0  0  1  0  0  0  0  0  0
    9.9689   45.1018   33.2141 C   0  0  1  0  0  0  0  0  0  0  0  0
   11.0575   46.0377   33.5062 N   0  0  0  0  0  0  0  0  0  0  0  0
    9.7791   44.9515   31.6902 C   0  0  0  0  0  0  0  0  0  0  0  0
    9.2564   46.2168   31.0582 C   0  0  0  0  0  0  0  0  0  0  0  0
   10.1212   47.0775   30.3645 C   0  0  0  0  0  0  0  0  0  0  0  0
    7.9012   46.5594   31.1825 C   0  0  0  0  0  0  0  0  0  0  0  0
    9.6349   48.2586   29.7970 C   0  0  0  0  0  0  0  0  0  0  0  0
    7.4153   47.7407   30.6145 C   0  0  0  0  0  0  0  0  0  0  0  0
    8.2829   48.6011   29.9149 C   0  0  0  0  0  0  0  0  0  0  0  0
    7.8446   49.7973   29.3276 O   0  0  0  0  0  0  0  0  0  0  0  0
    6.5016   50.2684   29.3700 C   0  0  0  0  0  0  0  0  0  0  0  0
    8.8078   40.1914   34.2096 O   0  0  0  0  0  0  0  0  0  0  0  0
   11.2365   40.7932   33.3680 O   0  0  0  0  0  0  0  0  0  0  0  0
   10.9142   40.6901   31.9953 C   0  0  0  0  0  0  0  0  0  0  0  0
   11.5244   39.3881   31.4370 C   0  0  0  0  0  0  0  0  0  0  0  0
   12.7479   39.0887   32.0809 O   0  0  0  0  0  0  0  0  0  0  0  0
   10.6097   38.1913   31.6471 C   0  0  0  0  0  0  0  0  0  0  0  0
   12.9346   37.6815   32.0294 C   0  0  0  0  0  0  0  0  0  0  0  0
    9.6125   38.0877   30.6545 O   0  0  0  0  0  0  0  0  0  0  0  0
   11.5766   37.0138   31.7026 C   0  0  0  0  0  0  0  0  0  0  0  0
   13.4901   37.2168   33.3236 N   0  0  0  0  0  0  0  0  0  0  0  0
   11.6322   36.3235   30.4742 O   0  0  0  0  0  0  0  0  0  0  0  0
   14.4762   36.3268   33.5727 C   0  0  0  0  0  0  0  0  0  0  0  0
   13.1179   37.6308   34.5690 C   0  0  0  0  0  0  0  0  0  0  0  0
   15.2065   35.6137   32.6738 N   0  0  0  0  0  0  0  0  0  0  0  0
   14.6735   36.2272   34.9181 C   0  0  0  0  0  0  0  0  0  0  0  0
   13.8228   37.0453   35.5783 N   0  0  0  0  0  0  0  0  0  0  0  0
   16.1639   34.7593   33.1546 C   0  0  0  0  0  0  0  0  0  0  0  0
   15.6518   35.3491   35.4130 C   0  0  0  0  0  0  0  0  0  0  0  0
   16.3794   34.6309   34.5041 N   0  0  0  0  0  0  0  0  0  0  0  0
   15.9004   35.1933   36.8089 N   0  0  0  0  0  0  0  0  0  0  0  0
    9.0245   45.4685   33.6762 H   0  0  0  0  0  0  0  0  0  0  0  0
   11.1202   46.1579   34.5442 H   0  0  0  0  0  0  0  0  0  0  0  0
   10.7940   46.9817   33.1427 H   0  0  0  0  0  0  0  0  0  0  0  0
    9.0542   44.1341   31.4784 H   0  0  0  0  0  0  0  0  0  0  0  0
   10.7431   44.6525   31.2211 H   0  0  0  0  0  0  0  0  0  0  0  0
   11.1726   46.8369   30.2663 H   0  0  0  0  0  0  0  0  0  0  0  0
    7.2213   45.9106   31.7210 H   0  0  0  0  0  0  0  0  0  0  0  0
   10.3129   48.9132   29.2641 H   0  0  0  0  0  0  0  0  0  0  0  0
    6.3657   47.9761   30.7264 H   0  0  0  0  0  0  0  0  0  0  0  0
    6.4388   51.2339   28.8276 H   0  0  0  0  0  0  0  0  0  0  0  0
    6.1870   50.4308   30.4226 H   0  0  0  0  0  0  0  0  0  0  0  0
    5.8253   49.5387   28.8768 H   0  0  0  0  0  0  0  0  0  0  0  0
    9.8239   40.7209   31.7593 H   0  0  0  0  0  0  0  0  0  0  0  0
   11.3809   41.5522   31.4722 H   0  0  0  0  0  0  0  0  0  0  0  0
   11.7267   39.5296   30.3507 H   0  0  0  0  0  0  0  0  0  0  0  0
   10.1116   38.2734   32.6389 H   0  0  0  0  0  0  0  0  0  0  0  0
   13.6683   37.4603   31.2224 H   0  0  0  0  0  0  0  0  0  0  0  0
   10.0514   38.1116   29.7647 H   0  0  0  0  0  0  0  0  0  0  0  0
   11.2801   36.3134   32.5196 H   0  0  0  0  0  0  0  0  0  0  0  0
   10.8625   35.6964   30.4646 H   0  0  0  0  0  0  0  0  0  0  0  0
   12.3356   38.3583   34.7446 H   0  0  0  0  0  0  0  0  0  0  0  0
   16.7573   34.1788   32.4618 H   0  0  0  0  0  0  0  0  0  0  0  0
   15.3531   35.7355   37.5137 H   0  0  0  0  0  0  0  0  0  0  0  0
   16.6364   34.5315   37.1414 H   0  0  0  0  0  0  0  0  0  0  0  0
  1  2  2  0
  1  3  1  0
  3  4  1  0
  4  5  1  0
  6  1  1  0
  7  6  1  0
  6  8  1  0
  8  9  1  0
  9 10  2  0
 11  9  1  0
 10 12  1  0
 13 11  2  0
 12 14  2  0
 14 13  1  0
 14 15  1  0
 15 16  1  0
  4 17  2  0
  4 18  1  0
 19 18  1  0
 19 20  1  0
 20 21  1  0
 20 22  1  0
 21 23  1  0
 22 24  1  0
 22 25  1  0
 25 23  1  0
 23 26  1  0
 25 27  1  0
 28 26  1  0
 29 26  1  0
 30 28  2  0
 28 31  1  0
 32 29  2  0
 33 30  1  0
 31 34  2  0
 31 32  1  0
 35 33  2  0
 35 34  1  0
 34 36  1  0
  6 37  1  1
  7 38  1  0
  7 39  1  0
  8 40  1  0
  8 41  1  0
 10 42  1  0
 11 43  1  0
 12 44  1  0
 13 45  1  0
 16 46  1  0
 16 47  1  0
 16 48  1  0
 19 49  1  0
 19 50  1  0
 20 51  1  0
 22 52  1  0
 23 53  1  0
 24 54  1  0
 25 55  1  0
 27 56  1  0
 29 57  1  0
 33 58  1  0
 36 59  1  0
 36 60  1  0
M  CHG  1   5  -1
M  END
>  <EmbedRMS>  (75) 
0.08807777866639982

$$$$

     RDKit          3D

 60 63  0  0  0  0  0  0  0  0999 V2000
   10.3001   43.7681   33.7924 C   0  0  0  0  0  0  0  0  0  0  0  0
   11.4162   43.5824   34.3594 O   0  0  0  0  0  0  0  0  0  0  0  0
    9.3698   42.7349   33.7051 O   0  0  0  0  0  0  0  0  0  0  0  0
    9.8865   41.2349   34.2836 P   0  0  0  0  0  5  0  0  0  0  0  0
   10.3686   41.4671   35.8741 O   0  0  0  0  0  1  0  0  0  0  0  0
    9.9792   45.1074   33.2198 C   0  0  1  0  0  0  0  0  0  0  0  0
   11.0354   46.0790   33.5228 N   0  0  0  0  0  0  0  0  0  0  0  0
    9.6878   45.0386   31.6975 C   0  0  0  0  0  0  0  0  0  0  0  0
   10.8895   45.2629   30.8010 C   0  0  0  0  0  0  0  0  0  0  0  0
   10.8773   46.2989   29.8518 C   0  0  0  0  0  0  0  0  0  0  0  0
   12.0122   44.4230   30.8737 C   0  0  0  0  0  0  0  0  0  0  0  0
   11.9682   46.4928   28.9997 C   0  0  0  0  0  0  0  0  0  0  0  0
   13.1034   44.6172   30.0225 C   0  0  0  0  0  0  0  0  0  0  0  0
   13.0875   45.6572   29.0750 C   0  0  0  0  0  0  0  0  0  0  0  0
   14.1564   45.8927   28.1975 O   0  0  0  0  0  0  0  0  0  0  0  0
   15.3534   45.1224   28.1644 C   0  0  0  0  0  0  0  0  0  0  0  0
    8.8080   40.1930   34.2073 O   0  0  0  0  0  0  0  0  0  0  0  0
   11.2375   40.7935   33.3637 O   0  0  0  0  0  0  0  0  0  0  0  0
   10.9092   40.6787   31.9928 C   0  0  0  0  0  0  0  0  0  0  0  0
   11.5135   39.3740   31.4402 C   0  0  0  0  0  0  0  0  0  0  0  0
   12.7448   39.0844   32.0743 O   0  0  0  0  0  0  0  0  0  0  0  0
   10.6020   38.1832   31.6674 C   0  0  0  0  0  0  0  0  0  0  0  0
   12.9333   37.6786   32.0282 C   0  0  0  0  0  0  0  0  0  0  0  0
    9.6388   38.0726   30.6460 O   0  0  0  0  0  0  0  0  0  0  0  0
   11.5748   37.0119   31.7054 C   0  0  0  0  0  0  0  0  0  0  0  0
   13.4904   37.2174   33.3233 N   0  0  0  0  0  0  0  0  0  0  0  0
   11.6226   36.3360   30.4683 O   0  0  0  0  0  0  0  0  0  0  0  0
   14.4762   36.3271   33.5726 C   0  0  0  0  0  0  0  0  0  0  0  0
   13.1179   37.6314   34.5685 C   0  0  0  0  0  0  0  0  0  0  0  0
   15.2064   35.6137   32.6738 N   0  0  0  0  0  0  0  0  0  0  0  0
   14.6735   36.2277   34.9181 C   0  0  0  0  0  0  0  0  0  0  0  0
   13.8227   37.0458   35.5781 N   0  0  0  0  0  0  0  0  0  0  0  0
   16.1637   34.7593   33.1547 C   0  0  0  0  0  0  0  0  0  0  0  0
   15.6516   35.3493   35.4130 C   0  0  0  0  0  0  0  0  0  0  0  0
   16.3792   34.6310   34.5042 N   0  0  0  0  0  0  0  0  0  0  0  0
   15.9002   35.1935   36.8089 N   0  0  0  0  0  0  0  0  0  0  0  0
    9.0446   45.4465   33.7200 H   0  0  0  0  0  0  0  0  0  0  0  0
   11.9766   45.7171   33.2465 H   0  0  0  0  0  0  0  0  0  0  0  0
   11.0554   46.2450   34.5559 H   0  0  0  0  0  0  0  0  0  0  0  0
    9.2245   44.0637   31.4310 H   0  0  0  0  0  0  0  0  0  0  0  0
    8.9147   45.8059   31.4714 H   0  0  0  0  0  0  0  0  0  0  0  0
   10.0225   46.9582   29.7668 H   0  0  0  0  0  0  0  0  0  0  0  0
   12.0591   43.6368   31.6100 H   0  0  0  0  0  0  0  0  0  0  0  0
   11.9427   47.2963   28.2744 H   0  0  0  0  0  0  0  0  0  0  0  0
   13.9548   43.9565   30.1127 H   0  0  0  0  0  0  0  0  0  0  0  0
   16.0227   45.5261   27.3773 H   0  0  0  0  0  0  0  0  0  0  0  0
   15.8756   45.1860   29.1423 H   0  0  0  0  0  0  0  0  0  0  0  0
   15.1196   44.0637   27.9238 H   0  0  0  0  0  0  0  0  0  0  0  0
    9.8197   40.7224   31.7592 H   0  0  0  0  0  0  0  0  0  0  0  0
   11.3804   41.5214   31.4542 H   0  0  0  0  0  0  0  0  0  0  0  0
   11.6948   39.4971   30.3472 H   0  0  0  0  0  0  0  0  0  0  0  0
   10.1082   38.2557   32.6662 H   0  0  0  0  0  0  0  0  0  0  0  0
   13.6661   37.4548   31.2211 H   0  0  0  0  0  0  0  0  0  0  0  0
    8.8897   38.6752   30.8917 H   0  0  0  0  0  0  0  0  0  0  0  0
   11.2869   36.3010   32.5163 H   0  0  0  0  0  0  0  0  0  0  0  0
   10.8553   35.7061   30.4574 H   0  0  0  0  0  0  0  0  0  0  0  0
   12.3352   38.3585   34.7440 H   0  0  0  0  0  0  0  0  0  0  0  0
   16.7571   34.1787   32.4620 H   0  0  0  0  0  0  0  0  0  0  0  0
   15.3530   35.7358   37.5137 H   0  0  0  0  0  0  0  0  0  0  0  0
   16.6361   34.5316   37.1414 H   0  0  0  0  0  0  0  0  0  0  0  0
  1  2  2  0
  1  3  1  0
  3  4  1  0
  4  5  1  0
  6  1  1  0
  7  6  1  0
  6  8  1  0
  8  9  1  0
  9 10  2  0
 11  9  1  0
 10 12  1  0
 13 11  2  0
 12 14  2  0
 14 13  1  0
 14 15  1  0
 15 16  1  0
  4 17  2  0
  4 18  1  0
 19 18  1  0
 19 20  1  0
 20 21  1  0
 20 22  1  0
 21 23  1  0
 22 24  1  0
 22 25  1  0
 25 23  1  0
 23 26  1  0
 25 27  1  0
 28 26  1  0
 29 26  1  0
 30 28  2  0
 28 31  1  0
 32 29  2  0
 33 30  1  0
 31 34  2  0
 31 32  1  0
 35 33  2  0
 35 34  1  0
 34 36  1  0
  6 37  1  1
  7 38  1  0
  7 39  1  0
  8 40  1  0
  8 41  1  0
 10 42  1  0
 11 43  1  0
 12 44  1  0
 13 45  1  0
 16 46  1  0
 16 47  1  0
 16 48  1  0
 19 49  1  0
 19 50  1  0
 20 51  1  0
 22 52  1  0
 23 53  1  0
 24 54  1  0
 25 55  1  0
 27 56  1  0
 29 57  1  0
 33 58  1  0
 36 59  1  0
 36 60  1  0
M  CHG  1   5  -1
M  END
>  <EmbedRMS>  (76) 
0.09159862269283744

$$$$

     RDKit          3D

 60 63  0  0  0  0  0  0  0  0999 V2000
   10.2904   43.7682   33.8031 C   0  0  0  0  0  0  0  0  0  0  0  0
   11.4118   43.5807   34.3603 O   0  0  0  0  0  0  0  0  0  0  0  0
    9.3643   42.7327   33.7095 O   0  0  0  0  0  0  0  0  0  0  0  0
    9.8840   41.2332   34.2858 P   0  0  0  0  0  5  0  0  0  0  0  0
   10.3665   41.4656   35.8760 O   0  0  0  0  0  1  0  0  0  0  0  0
    9.9697   45.1050   33.2284 C   0  0  1  0  0  0  0  0  0  0  0  0
   11.0570   46.0521   33.4895 N   0  0  0  0  0  0  0  0  0  0  0  0
    9.7163   44.9861   31.7146 C   0  0  0  0  0  0  0  0  0  0  0  0
    9.2979   46.3075   31.1225 C   0  0  0  0  0  0  0  0  0  0  0  0
   10.2459   47.1493   30.5205 C   0  0  0  0  0  0  0  0  0  0  0  0
    7.9622   46.7286   31.2089 C   0  0  0  0  0  0  0  0  0  0  0  0
    9.8607   48.3871   29.9970 C   0  0  0  0  0  0  0  0  0  0  0  0
    7.5775   47.9661   30.6851 C   0  0  0  0  0  0  0  0  0  0  0  0
    8.5181   48.8044   30.0755 C   0  0  0  0  0  0  0  0  0  0  0  0
    8.0818   50.0362   29.5656 O   0  0  0  0  0  0  0  0  0  0  0  0
    8.9272   50.9850   28.9234 C   0  0  0  0  0  0  0  0  0  0  0  0
    8.8066   40.1904   34.2089 O   0  0  0  0  0  0  0  0  0  0  0  0
   11.2358   40.7916   33.3679 O   0  0  0  0  0  0  0  0  0  0  0  0
   10.9139   40.6891   31.9950 C   0  0  0  0  0  0  0  0  0  0  0  0
   11.5254   39.3878   31.4368 C   0  0  0  0  0  0  0  0  0  0  0  0
   12.7486   39.0899   32.0823 O   0  0  0  0  0  0  0  0  0  0  0  0
   10.6120   38.1896   31.6461 C   0  0  0  0  0  0  0  0  0  0  0  0
   12.9371   37.6833   32.0302 C   0  0  0  0  0  0  0  0  0  0  0  0
    9.6149   38.0840   30.6536 O   0  0  0  0  0  0  0  0  0  0  0  0
   11.5792   37.0140   31.7014 C   0  0  0  0  0  0  0  0  0  0  0  0
   13.4906   37.2172   33.3242 N   0  0  0  0  0  0  0  0  0  0  0  0
   11.6217   36.3255   30.4726 O   0  0  0  0  0  0  0  0  0  0  0  0
   14.4763   36.3268   33.5730 C   0  0  0  0  0  0  0  0  0  0  0  0
   13.1181   37.6310   34.5695 C   0  0  0  0  0  0  0  0  0  0  0  0
   15.2065   35.6138   32.6739 N   0  0  0  0  0  0  0  0  0  0  0  0
   14.6735   36.2270   34.9184 C   0  0  0  0  0  0  0  0  0  0  0  0
   13.8229   37.0451   35.5787 N   0  0  0  0  0  0  0  0  0  0  0  0
   16.1638   34.7594   33.1546 C   0  0  0  0  0  0  0  0  0  0  0  0
   15.6518   35.3489   35.4131 C   0  0  0  0  0  0  0  0  0  0  0  0
   16.3794   34.6308   34.5041 N   0  0  0  0  0  0  0  0  0  0  0  0
   15.9006   35.1931   36.8089 N   0  0  0  0  0  0  0  0  0  0  0  0
    9.0441   45.4767   33.7211 H   0  0  0  0  0  0  0  0  0  0  0  0
   11.9530   45.6971   33.0806 H   0  0  0  0  0  0  0  0  0  0  0  0
   11.1830   46.1616   34.5226 H   0  0  0  0  0  0  0  0  0  0  0  0
   10.6320   44.6099   31.2059 H   0  0  0  0  0  0  0  0  0  0  0  0
    8.9143   44.2384   31.5256 H   0  0  0  0  0  0  0  0  0  0  0  0
   11.2844   46.8482   30.4585 H   0  0  0  0  0  0  0  0  0  0  0  0
    7.2196   46.0988   31.6832 H   0  0  0  0  0  0  0  0  0  0  0  0
   10.6138   49.0121   29.5368 H   0  0  0  0  0  0  0  0  0  0  0  0
    6.5429   48.2771   30.7558 H   0  0  0  0  0  0  0  0  0  0  0  0
    9.7210   51.3236   29.6223 H   0  0  0  0  0  0  0  0  0  0  0  0
    9.3829   50.5372   28.0150 H   0  0  0  0  0  0  0  0  0  0  0  0
    8.3218   51.8638   28.6209 H   0  0  0  0  0  0  0  0  0  0  0  0
    9.8236   40.7187   31.7588 H   0  0  0  0  0  0  0  0  0  0  0  0
   11.3800   41.5517   31.4724 H   0  0  0  0  0  0  0  0  0  0  0  0
   11.7286   39.5295   30.3507 H   0  0  0  0  0  0  0  0  0  0  0  0
   10.1135   38.2720   32.6378 H   0  0  0  0  0  0  0  0  0  0  0  0
   13.6724   37.4645   31.2240 H   0  0  0  0  0  0  0  0  0  0  0  0
   10.0536   38.1090   29.7638 H   0  0  0  0  0  0  0  0  0  0  0  0
   11.2645   36.3139   32.5107 H   0  0  0  0  0  0  0  0  0  0  0  0
   12.1552   35.5036   30.6317 H   0  0  0  0  0  0  0  0  0  0  0  0
   12.3362   38.3588   34.7451 H   0  0  0  0  0  0  0  0  0  0  0  0
   16.7572   34.1789   32.4618 H   0  0  0  0  0  0  0  0  0  0  0  0
   15.3533   35.7353   37.5138 H   0  0  0  0  0  0  0  0  0  0  0  0
   16.6366   34.5314   37.1414 H   0  0  0  0  0  0  0  0  0  0  0  0
  1  2  2  0
  1  3  1  0
  3  4  1  0
  4  5  1  0
  6  1  1  0
  7  6  1  0
  6  8  1  0
  8  9  1  0
  9 10  2  0
 11  9  1  0
 10 12  1  0
 13 11  2  0
 12 14  2  0
 14 13  1  0
 14 15  1  0
 15 16  1  0
  4 17  2  0
  4 18  1  0
 19 18  1  0
 19 20  1  0
 20 21  1  0
 20 22  1  0
 21 23  1  0
 22 24  1  0
 22 25  1  0
 25 23  1  0
 23 26  1  0
 25 27  1  0
 28 26  1  0
 29 26  1  0
 30 28  2  0
 28 31  1  0
 32 29  2  0
 33 30  1  0
 31 34  2  0
 31 32  1  0
 35 33  2  0
 35 34  1  0
 34 36  1  0
  6 37  1  1
  7 38  1  0
  7 39  1  0
  8 40  1  0
  8 41  1  0
 10 42  1  0
 11 43  1  0
 12 44  1  0
 13 45  1  0
 16 46  1  0
 16 47  1  0
 16 48  1  0
 19 49  1  0
 19 50  1  0
 20 51  1  0
 22 52  1  0
 23 53  1  0
 24 54  1  0
 25 55  1  0
 27 56  1  0
 29 57  1  0
 33 58  1  0
 36 59  1  0
 36 60  1  0
M  CHG  1   5  -1
M  END
>  <EmbedRMS>  (77) 
0.08834030393102468

$$$$

     RDKit          3D

 60 63  0  0  0  0  0  0  0  0999 V2000
   10.2890   43.7708   33.7903 C   0  0  0  0  0  0  0  0  0  0  0  0
   11.4141   43.5855   34.3415 O   0  0  0  0  0  0  0  0  0  0  0  0
    9.3633   42.7338   33.7098 O   0  0  0  0  0  0  0  0  0  0  0  0
    9.8849   41.2348   34.2858 P   0  0  0  0  0  5  0  0  0  0  0  0
   10.3679   41.4679   35.8756 O   0  0  0  0  0  1  0  0  0  0  0  0
    9.9601   45.1142   33.2289 C   0  0  1  0  0  0  0  0  0  0  0  0
   11.0608   46.0372   33.5110 N   0  0  0  0  0  0  0  0  0  0  0  0
    9.7249   45.0484   31.7023 C   0  0  0  0  0  0  0  0  0  0  0  0
    8.5132   44.2300   31.3222 C   0  0  0  0  0  0  0  0  0  0  0  0
    7.2286   44.6283   31.7258 C   0  0  0  0  0  0  0  0  0  0  0  0
    8.6564   43.0690   30.5469 C   0  0  0  0  0  0  0  0  0  0  0  0
    6.1107   43.8583   31.3908 C   0  0  0  0  0  0  0  0  0  0  0  0
    7.5395   42.2980   30.2147 C   0  0  0  0  0  0  0  0  0  0  0  0
    6.2608   42.6804   30.6345 C   0  0  0  0  0  0  0  0  0  0  0  0
    5.1724   41.8701   30.2791 O   0  0  0  0  0  0  0  0  0  0  0  0
    3.8211   42.1357   30.6406 C   0  0  0  0  0  0  0  0  0  0  0  0
    8.8072   40.1922   34.2098 O   0  0  0  0  0  0  0  0  0  0  0  0
   11.2364   40.7911   33.3677 O   0  0  0  0  0  0  0  0  0  0  0  0
   10.9125   40.6824   31.9958 C   0  0  0  0  0  0  0  0  0  0  0  0
   11.5174   39.3771   31.4409 C   0  0  0  0  0  0  0  0  0  0  0  0
   12.7477   39.0868   32.0763 O   0  0  0  0  0  0  0  0  0  0  0  0
   10.6069   38.1847   31.6659 C   0  0  0  0  0  0  0  0  0  0  0  0
   12.9372   37.6810   32.0292 C   0  0  0  0  0  0  0  0  0  0  0  0
    9.6406   38.0887   30.6474 O   0  0  0  0  0  0  0  0  0  0  0  0
   11.5790   37.0132   31.7044 C   0  0  0  0  0  0  0  0  0  0  0  0
   13.4914   37.2180   33.3240 N   0  0  0  0  0  0  0  0  0  0  0  0
   11.6126   36.3390   30.4671 O   0  0  0  0  0  0  0  0  0  0  0  0
   14.4766   36.3271   33.5731 C   0  0  0  0  0  0  0  0  0  0  0  0
   13.1184   37.6316   34.5691 C   0  0  0  0  0  0  0  0  0  0  0  0
   15.2066   35.6139   32.6741 N   0  0  0  0  0  0  0  0  0  0  0  0
   14.6735   36.2273   34.9185 C   0  0  0  0  0  0  0  0  0  0  0  0
   13.8228   37.0455   35.5785 N   0  0  0  0  0  0  0  0  0  0  0  0
   16.1638   34.7593   33.1548 C   0  0  0  0  0  0  0  0  0  0  0  0
   15.6517   35.3490   35.4132 C   0  0  0  0  0  0  0  0  0  0  0  0
   16.3793   34.6308   34.5043 N   0  0  0  0  0  0  0  0  0  0  0  0
   15.9004   35.1932   36.8091 N   0  0  0  0  0  0  0  0  0  0  0  0
    9.0408   45.4883   33.7323 H   0  0  0  0  0  0  0  0  0  0  0  0
   11.1226   46.1721   34.5473 H   0  0  0  0  0  0  0  0  0  0  0  0
   10.8139   46.9779   33.1255 H   0  0  0  0  0  0  0  0  0  0  0  0
    9.5725   46.0774   31.3100 H   0  0  0  0  0  0  0  0  0  0  0  0
   10.6398   44.6504   31.2092 H   0  0  0  0  0  0  0  0  0  0  0  0
    7.0916   45.5340   32.3031 H   0  0  0  0  0  0  0  0  0  0  0  0
    9.6327   42.7570   30.2000 H   0  0  0  0  0  0  0  0  0  0  0  0
    5.1361   44.1875   31.7242 H   0  0  0  0  0  0  0  0  0  0  0  0
    7.6684   41.3981   29.6265 H   0  0  0  0  0  0  0  0  0  0  0  0
    3.7171   42.1485   31.7462 H   0  0  0  0  0  0  0  0  0  0  0  0
    3.1722   41.3342   30.2320 H   0  0  0  0  0  0  0  0  0  0  0  0
    3.4960   43.1083   30.2145 H   0  0  0  0  0  0  0  0  0  0  0  0
    9.8219   40.7089   31.7636 H   0  0  0  0  0  0  0  0  0  0  0  0
   11.3826   41.5397   31.4689 H   0  0  0  0  0  0  0  0  0  0  0  0
   11.7000   39.5031   30.3486 H   0  0  0  0  0  0  0  0  0  0  0  0
   10.1094   38.2740   32.6608 H   0  0  0  0  0  0  0  0  0  0  0  0
   13.6715   37.4594   31.2229 H   0  0  0  0  0  0  0  0  0  0  0  0
    9.0015   37.3861   30.9357 H   0  0  0  0  0  0  0  0  0  0  0  0
   11.2707   36.3044   32.5085 H   0  0  0  0  0  0  0  0  0  0  0  0
   12.1447   35.5139   30.6136 H   0  0  0  0  0  0  0  0  0  0  0  0
   12.3361   38.3591   34.7445 H   0  0  0  0  0  0  0  0  0  0  0  0
   16.7571   34.1787   32.4620 H   0  0  0  0  0  0  0  0  0  0  0  0
   15.3532   35.7355   37.5139 H   0  0  0  0  0  0  0  0  0  0  0  0
   16.6363   34.5314   37.1416 H   0  0  0  0  0  0  0  0  0  0  0  0
  1  2  2  0
  1  3  1  0
  3  4  1  0
  4  5  1  0
  6  1  1  0
  7  6  1  0
  6  8  1  0
  8  9  1  0
  9 10  2  0
 11  9  1  0
 10 12  1  0
 13 11  2  0
 12 14  2  0
 14 13  1  0
 14 15  1  0
 15 16  1  0
  4 17  2  0
  4 18  1  0
 19 18  1  0
 19 20  1  0
 20 21  1  0
 20 22  1  0
 21 23  1  0
 22 24  1  0
 22 25  1  0
 25 23  1  0
 23 26  1  0
 25 27  1  0
 28 26  1  0
 29 26  1  0
 30 28  2  0
 28 31  1  0
 32 29  2  0
 33 30  1  0
 31 34  2  0
 31 32  1  0
 35 33  2  0
 35 34  1  0
 34 36  1  0
  6 37  1  1
  7 38  1  0
  7 39  1  0
  8 40  1  0
  8 41  1  0
 10 42  1  0
 11 43  1  0
 12 44  1  0
 13 45  1  0
 16 46  1  0
 16 47  1  0
 16 48  1  0
 19 49  1  0
 19 50  1  0
 20 51  1  0
 22 52  1  0
 23 53  1  0
 24 54  1  0
 25 55  1  0
 27 56  1  0
 29 57  1  0
 33 58  1  0
 36 59  1  0
 36 60  1  0
M  CHG  1   5  -1
M  END
>  <EmbedRMS>  (78) 
0.08931137782457754

$$$$

     RDKit          3D

 60 63  0  0  0  0  0  0  0  0999 V2000
   10.2905   43.7682   33.8031 C   0  0  0  0  0  0  0  0  0  0  0  0
   11.4118   43.5807   34.3602 O   0  0  0  0  0  0  0  0  0  0  0  0
    9.3643   42.7327   33.7095 O   0  0  0  0  0  0  0  0  0  0  0  0
    9.8840   41.2332   34.2858 P   0  0  0  0  0  5  0  0  0  0  0  0
   10.3665   41.4656   35.8760 O   0  0  0  0  0  1  0  0  0  0  0  0
    9.9696   45.1050   33.2284 C   0  0  1  0  0  0  0  0  0  0  0  0
   11.0569   46.0521   33.4894 N   0  0  0  0  0  0  0  0  0  0  0  0
    9.7160   44.9862   31.7147 C   0  0  0  0  0  0  0  0  0  0  0  0
    9.2957   46.3072   31.1231 C   0  0  0  0  0  0  0  0  0  0  0  0
    7.9593   46.7262   31.2095 C   0  0  0  0  0  0  0  0  0  0  0  0
   10.2425   47.1508   30.5217 C   0  0  0  0  0  0  0  0  0  0  0  0
    7.5727   47.9632   30.6861 C   0  0  0  0  0  0  0  0  0  0  0  0
    9.8553   48.3882   29.9986 C   0  0  0  0  0  0  0  0  0  0  0  0
    8.5120   48.8032   30.0769 C   0  0  0  0  0  0  0  0  0  0  0  0
    8.0737   50.0345   29.5673 O   0  0  0  0  0  0  0  0  0  0  0  0
    8.9177   50.9848   28.9253 C   0  0  0  0  0  0  0  0  0  0  0  0
    8.8066   40.1904   34.2089 O   0  0  0  0  0  0  0  0  0  0  0  0
   11.2358   40.7916   33.3679 O   0  0  0  0  0  0  0  0  0  0  0  0
   10.9139   40.6891   31.9950 C   0  0  0  0  0  0  0  0  0  0  0  0
   11.5254   39.3878   31.4368 C   0  0  0  0  0  0  0  0  0  0  0  0
   12.7486   39.0899   32.0823 O   0  0  0  0  0  0  0  0  0  0  0  0
   10.6120   38.1896   31.6461 C   0  0  0  0  0  0  0  0  0  0  0  0
   12.9371   37.6833   32.0302 C   0  0  0  0  0  0  0  0  0  0  0  0
    9.6149   38.0840   30.6536 O   0  0  0  0  0  0  0  0  0  0  0  0
   11.5792   37.0140   31.7014 C   0  0  0  0  0  0  0  0  0  0  0  0
   13.4906   37.2172   33.3242 N   0  0  0  0  0  0  0  0  0  0  0  0
   11.6217   36.3255   30.4726 O   0  0  0  0  0  0  0  0  0  0  0  0
   14.4763   36.3268   33.5730 C   0  0  0  0  0  0  0  0  0  0  0  0
   13.1181   37.6310   34.5694 C   0  0  0  0  0  0  0  0  0  0  0  0
   15.2065   35.6138   32.6739 N   0  0  0  0  0  0  0  0  0  0  0  0
   14.6735   36.2270   34.9184 C   0  0  0  0  0  0  0  0  0  0  0  0
   13.8228   37.0451   35.5787 N   0  0  0  0  0  0  0  0  0  0  0  0
   16.1638   34.7594   33.1546 C   0  0  0  0  0  0  0  0  0  0  0  0
   15.6518   35.3489   35.4131 C   0  0  0  0  0  0  0  0  0  0  0  0
   16.3794   34.6308   34.5041 N   0  0  0  0  0  0  0  0  0  0  0  0
   15.9005   35.1931   36.8089 N   0  0  0  0  0  0  0  0  0  0  0  0
    9.0441   45.4766   33.7213 H   0  0  0  0  0  0  0  0  0  0  0  0
   11.1830   46.1617   34.5225 H   0  0  0  0  0  0  0  0  0  0  0  0
   11.9530   45.6972   33.0805 H   0  0  0  0  0  0  0  0  0  0  0  0
    8.9150   44.2375   31.5256 H   0  0  0  0  0  0  0  0  0  0  0  0
   10.6321   44.6114   31.2056 H   0  0  0  0  0  0  0  0  0  0  0  0
    7.2176   46.0950   31.6834 H   0  0  0  0  0  0  0  0  0  0  0  0
   11.2815   46.8514   30.4598 H   0  0  0  0  0  0  0  0  0  0  0  0
    6.5376   48.2725   30.7566 H   0  0  0  0  0  0  0  0  0  0  0  0
   10.6074   49.0146   29.5387 H   0  0  0  0  0  0  0  0  0  0  0  0
    8.3109   51.8626   28.6229 H   0  0  0  0  0  0  0  0  0  0  0  0
    9.7109   51.3245   29.6243 H   0  0  0  0  0  0  0  0  0  0  0  0
    9.3741   50.5379   28.0169 H   0  0  0  0  0  0  0  0  0  0  0  0
    9.8236   40.7187   31.7588 H   0  0  0  0  0  0  0  0  0  0  0  0
   11.3800   41.5517   31.4724 H   0  0  0  0  0  0  0  0  0  0  0  0
   11.7286   39.5295   30.3507 H   0  0  0  0  0  0  0  0  0  0  0  0
   10.1135   38.2720   32.6378 H   0  0  0  0  0  0  0  0  0  0  0  0
   13.6724   37.4645   31.2240 H   0  0  0  0  0  0  0  0  0  0  0  0
   10.0536   38.1089   29.7638 H   0  0  0  0  0  0  0  0  0  0  0  0
   11.2645   36.3139   32.5107 H   0  0  0  0  0  0  0  0  0  0  0  0
   12.1552   35.5036   30.6317 H   0  0  0  0  0  0  0  0  0  0  0  0
   12.3362   38.3588   34.7451 H   0  0  0  0  0  0  0  0  0  0  0  0
   16.7572   34.1789   32.4618 H   0  0  0  0  0  0  0  0  0  0  0  0
   15.3533   35.7353   37.5139 H   0  0  0  0  0  0  0  0  0  0  0  0
   16.6366   34.5314   37.1414 H   0  0  0  0  0  0  0  0  0  0  0  0
  1  2  2  0
  1  3  1  0
  3  4  1  0
  4  5  1  0
  6  1  1  0
  7  6  1  0
  6  8  1  0
  8  9  1  0
  9 10  2  0
 11  9  1  0
 10 12  1  0
 13 11  2  0
 12 14  2  0
 14 13  1  0
 14 15  1  0
 15 16  1  0
  4 17  2  0
  4 18  1  0
 19 18  1  0
 19 20  1  0
 20 21  1  0
 20 22  1  0
 21 23  1  0
 22 24  1  0
 22 25  1  0
 25 23  1  0
 23 26  1  0
 25 27  1  0
 28 26  1  0
 29 26  1  0
 30 28  2  0
 28 31  1  0
 32 29  2  0
 33 30  1  0
 31 34  2  0
 31 32  1  0
 35 33  2  0
 35 34  1  0
 34 36  1  0
  6 37  1  1
  7 38  1  0
  7 39  1  0
  8 40  1  0
  8 41  1  0
 10 42  1  0
 11 43  1  0
 12 44  1  0
 13 45  1  0
 16 46  1  0
 16 47  1  0
 16 48  1  0
 19 49  1  0
 19 50  1  0
 20 51  1  0
 22 52  1  0
 23 53  1  0
 24 54  1  0
 25 55  1  0
 27 56  1  0
 29 57  1  0
 33 58  1  0
 36 59  1  0
 36 60  1  0
M  CHG  1   5  -1
M  END
>  <EmbedRMS>  (79) 
0.08834379164746911

$$$$

     RDKit          3D

 60 63  0  0  0  0  0  0  0  0999 V2000
   10.2905   43.7681   33.8031 C   0  0  0  0  0  0  0  0  0  0  0  0
   11.4118   43.5808   34.3604 O   0  0  0  0  0  0  0  0  0  0  0  0
    9.3647   42.7325   33.7092 O   0  0  0  0  0  0  0  0  0  0  0  0
    9.8845   41.2329   34.2855 P   0  0  0  0  0  5  0  0  0  0  0  0
   10.3661   41.4655   35.8759 O   0  0  0  0  0  1  0  0  0  0  0  0
    9.9696   45.1049   33.2284 C   0  0  1  0  0  0  0  0  0  0  0  0
   11.0569   46.0521   33.4894 N   0  0  0  0  0  0  0  0  0  0  0  0
    9.7160   44.9860   31.7147 C   0  0  0  0  0  0  0  0  0  0  0  0
    9.2973   46.3073   31.1227 C   0  0  0  0  0  0  0  0  0  0  0  0
    7.9616   46.7283   31.2093 C   0  0  0  0  0  0  0  0  0  0  0  0
   10.2451   47.1493   30.5205 C   0  0  0  0  0  0  0  0  0  0  0  0
    7.5766   47.9656   30.6856 C   0  0  0  0  0  0  0  0  0  0  0  0
    9.8596   48.3870   29.9970 C   0  0  0  0  0  0  0  0  0  0  0  0
    8.5169   48.8040   30.0757 C   0  0  0  0  0  0  0  0  0  0  0  0
    8.0803   50.0358   29.5658 O   0  0  0  0  0  0  0  0  0  0  0  0
    8.9254   50.9847   28.9234 C   0  0  0  0  0  0  0  0  0  0  0  0
    8.8072   40.1901   34.2079 O   0  0  0  0  0  0  0  0  0  0  0  0
   11.2374   40.7917   33.3686 O   0  0  0  0  0  0  0  0  0  0  0  0
   10.9182   40.6904   31.9949 C   0  0  0  0  0  0  0  0  0  0  0  0
   11.5166   39.3808   31.4399 C   0  0  0  0  0  0  0  0  0  0  0  0
   12.7474   39.0867   32.0737 O   0  0  0  0  0  0  0  0  0  0  0  0
   10.6029   38.1894   31.6666 C   0  0  0  0  0  0  0  0  0  0  0  0
   12.9333   37.6802   32.0280 C   0  0  0  0  0  0  0  0  0  0  0  0
    9.6396   38.0779   30.6455 O   0  0  0  0  0  0  0  0  0  0  0  0
   11.5738   37.0158   31.7057 C   0  0  0  0  0  0  0  0  0  0  0  0
   13.4903   37.2180   33.3231 N   0  0  0  0  0  0  0  0  0  0  0  0
   11.6211   36.3378   30.4696 O   0  0  0  0  0  0  0  0  0  0  0  0
   14.4760   36.3274   33.5724 C   0  0  0  0  0  0  0  0  0  0  0  0
   13.1179   37.6318   34.5684 C   0  0  0  0  0  0  0  0  0  0  0  0
   15.2063   35.6140   32.6737 N   0  0  0  0  0  0  0  0  0  0  0  0
   14.6733   36.2278   34.9179 C   0  0  0  0  0  0  0  0  0  0  0  0
   13.8225   37.0459   35.5779 N   0  0  0  0  0  0  0  0  0  0  0  0
   16.1635   34.7595   33.1545 C   0  0  0  0  0  0  0  0  0  0  0  0
   15.6515   35.3494   35.4129 C   0  0  0  0  0  0  0  0  0  0  0  0
   16.3790   34.6311   34.5040 N   0  0  0  0  0  0  0  0  0  0  0  0
   15.9001   35.1935   36.8087 N   0  0  0  0  0  0  0  0  0  0  0  0
    9.0441   45.4765   33.7213 H   0  0  0  0  0  0  0  0  0  0  0  0
   11.1830   46.1616   34.5225 H   0  0  0  0  0  0  0  0  0  0  0  0
   11.9530   45.6971   33.0804 H   0  0  0  0  0  0  0  0  0  0  0  0
    8.9142   44.2382   31.5258 H   0  0  0  0  0  0  0  0  0  0  0  0
   10.6317   44.6100   31.2059 H   0  0  0  0  0  0  0  0  0  0  0  0
    7.2192   46.0984   31.6839 H   0  0  0  0  0  0  0  0  0  0  0  0
   11.2836   46.8483   30.4582 H   0  0  0  0  0  0  0  0  0  0  0  0
    6.5419   48.2765   30.7564 H   0  0  0  0  0  0  0  0  0  0  0  0
   10.6124   49.0121   29.5365 H   0  0  0  0  0  0  0  0  0  0  0  0
    9.3810   50.5369   28.0150 H   0  0  0  0  0  0  0  0  0  0  0  0
    8.3198   51.8633   28.6208 H   0  0  0  0  0  0  0  0  0  0  0  0
    9.7193   51.3235   29.6221 H   0  0  0  0  0  0  0  0  0  0  0  0
    9.8303   40.7405   31.7554 H   0  0  0  0  0  0  0  0  0  0  0  0
   11.3990   41.5451   31.4727 H   0  0  0  0  0  0  0  0  0  0  0  0
   11.6979   39.5051   30.3473 H   0  0  0  0  0  0  0  0  0  0  0  0
   10.1086   38.2634   32.6648 H   0  0  0  0  0  0  0  0  0  0  0  0
   13.6654   37.4549   31.2207 H   0  0  0  0  0  0  0  0  0  0  0  0
    8.8967   38.6908   30.8845 H   0  0  0  0  0  0  0  0  0  0  0  0
   11.2845   36.3064   32.5176 H   0  0  0  0  0  0  0  0  0  0  0  0
   10.8523   35.7097   30.4591 H   0  0  0  0  0  0  0  0  0  0  0  0
   12.3353   38.3589   34.7440 H   0  0  0  0  0  0  0  0  0  0  0  0
   16.7569   34.1789   32.4618 H   0  0  0  0  0  0  0  0  0  0  0  0
   16.6359   34.5317   37.1413 H   0  0  0  0  0  0  0  0  0  0  0  0
   15.3529   35.7359   37.5136 H   0  0  0  0  0  0  0  0  0  0  0  0
  1  2  2  0
  1  3  1  0
  3  4  1  0
  4  5  1  0
  6  1  1  0
  7  6  1  0
  6  8  1  0
  8  9  1  0
  9 10  2  0
 11  9  1  0
 10 12  1  0
 13 11  2  0
 12 14  2  0
 14 13  1  0
 14 15  1  0
 15 16  1  0
  4 17  2  0
  4 18  1  0
 19 18  1  0
 19 20  1  0
 20 21  1  0
 20 22  1  0
 21 23  1  0
 22 24  1  0
 22 25  1  0
 25 23  1  0
 23 26  1  0
 25 27  1  0
 28 26  1  0
 29 26  1  0
 30 28  2  0
 28 31  1  0
 32 29  2  0
 33 30  1  0
 31 34  2  0
 31 32  1  0
 35 33  2  0
 35 34  1  0
 34 36  1  0
  6 37  1  1
  7 38  1  0
  7 39  1  0
  8 40  1  0
  8 41  1  0
 10 42  1  0
 11 43  1  0
 12 44  1  0
 13 45  1  0
 16 46  1  0
 16 47  1  0
 16 48  1  0
 19 49  1  0
 19 50  1  0
 20 51  1  0
 22 52  1  0
 23 53  1  0
 24 54  1  0
 25 55  1  0
 27 56  1  0
 29 57  1  0
 33 58  1  0
 36 59  1  0
 36 60  1  0
M  CHG  1   5  -1
M  END
>  <EmbedRMS>  (80) 
0.0898605027452496

$$$$

     RDKit          3D

 60 63  0  0  0  0  0  0  0  0999 V2000
   10.2941   43.7720   33.7963 C   0  0  0  0  0  0  0  0  0  0  0  0
   11.4141   43.5897   34.3578 O   0  0  0  0  0  0  0  0  0  0  0  0
    9.3669   42.7361   33.7090 O   0  0  0  0  0  0  0  0  0  0  0  0
    9.8866   41.2362   34.2849 P   0  0  0  0  0  5  0  0  0  0  0  0
   10.3701   41.4675   35.8749 O   0  0  0  0  0  1  0  0  0  0  0  0
    9.9764   45.1031   33.2093 C   0  0  1  0  0  0  0  0  0  0  0  0
   11.0437   46.0546   33.5256 N   0  0  0  0  0  0  0  0  0  0  0  0
    9.7516   45.0003   31.6768 C   0  0  0  0  0  0  0  0  0  0  0  0
   10.9980   45.2167   30.8403 C   0  0  0  0  0  0  0  0  0  0  0  0
   12.1376   44.4146   31.0157 C   0  0  0  0  0  0  0  0  0  0  0  0
   11.0156   46.2136   29.8500 C   0  0  0  0  0  0  0  0  0  0  0  0
   13.2722   44.6105   30.2240 C   0  0  0  0  0  0  0  0  0  0  0  0
   12.1511   46.4093   29.0581 C   0  0  0  0  0  0  0  0  0  0  0  0
   13.2912   45.6052   29.2411 C   0  0  0  0  0  0  0  0  0  0  0  0
   14.4544   45.7617   28.4728 O   0  0  0  0  0  0  0  0  0  0  0  0
   14.6122   46.7309   27.4417 C   0  0  0  0  0  0  0  0  0  0  0  0
    8.8087   40.1934   34.2089 O   0  0  0  0  0  0  0  0  0  0  0  0
   11.2365   40.7958   33.3631 O   0  0  0  0  0  0  0  0  0  0  0  0
   10.9058   40.6807   31.9928 C   0  0  0  0  0  0  0  0  0  0  0  0
   11.5230   39.3831   31.4369 C   0  0  0  0  0  0  0  0  0  0  0  0
   12.7463   39.0887   32.0832 O   0  0  0  0  0  0  0  0  0  0  0  0
   10.6114   38.1851   31.6464 C   0  0  0  0  0  0  0  0  0  0  0  0
   12.9371   37.6825   32.0304 C   0  0  0  0  0  0  0  0  0  0  0  0
    9.6141   38.0802   30.6540 O   0  0  0  0  0  0  0  0  0  0  0  0
   11.5800   37.0113   31.7010 C   0  0  0  0  0  0  0  0  0  0  0  0
   13.4907   37.2169   33.3244 N   0  0  0  0  0  0  0  0  0  0  0  0
   11.6231   36.3241   30.4717 O   0  0  0  0  0  0  0  0  0  0  0  0
   14.4764   36.3266   33.5732 C   0  0  0  0  0  0  0  0  0  0  0  0
   13.1182   37.6308   34.5696 C   0  0  0  0  0  0  0  0  0  0  0  0
   15.2065   35.6137   32.6740 N   0  0  0  0  0  0  0  0  0  0  0  0
   14.6736   36.2270   34.9185 C   0  0  0  0  0  0  0  0  0  0  0  0
   13.8229   37.0450   35.5788 N   0  0  0  0  0  0  0  0  0  0  0  0
   16.1639   34.7593   33.1547 C   0  0  0  0  0  0  0  0  0  0  0  0
   15.6519   35.3489   35.4132 C   0  0  0  0  0  0  0  0  0  0  0  0
   16.3795   34.6308   34.5042 N   0  0  0  0  0  0  0  0  0  0  0  0
   15.9006   35.1930   36.8090 N   0  0  0  0  0  0  0  0  0  0  0  0
    9.0283   45.4508   33.6791 H   0  0  0  0  0  0  0  0  0  0  0  0
   10.7867   46.9816   33.1141 H   0  0  0  0  0  0  0  0  0  0  0  0
   11.0589   46.2026   34.5617 H   0  0  0  0  0  0  0  0  0  0  0  0
    8.9872   45.7600   31.4015 H   0  0  0  0  0  0  0  0  0  0  0  0
    9.3068   44.0178   31.4059 H   0  0  0  0  0  0  0  0  0  0  0  0
   12.1600   43.6476   31.7735 H   0  0  0  0  0  0  0  0  0  0  0  0
   10.1494   46.8428   29.6874 H   0  0  0  0  0  0  0  0  0  0  0  0
   14.1434   43.9859   30.3767 H   0  0  0  0  0  0  0  0  0  0  0  0
   12.1310   47.1866   28.3065 H   0  0  0  0  0  0  0  0  0  0  0  0
   13.8603   46.5632   26.6418 H   0  0  0  0  0  0  0  0  0  0  0  0
   14.5042   47.7540   27.8597 H   0  0  0  0  0  0  0  0  0  0  0  0
   15.6260   46.6316   27.0028 H   0  0  0  0  0  0  0  0  0  0  0  0
   11.3607   41.5352   31.4553 H   0  0  0  0  0  0  0  0  0  0  0  0
    9.8140   40.7027   31.7633 H   0  0  0  0  0  0  0  0  0  0  0  0
   11.7266   39.5240   30.3507 H   0  0  0  0  0  0  0  0  0  0  0  0
   10.1131   38.2663   32.6385 H   0  0  0  0  0  0  0  0  0  0  0  0
   13.6729   37.4652   31.2244 H   0  0  0  0  0  0  0  0  0  0  0  0
   10.0525   38.1038   29.7640 H   0  0  0  0  0  0  0  0  0  0  0  0
   11.2664   36.3100   32.5098 H   0  0  0  0  0  0  0  0  0  0  0  0
   12.1582   35.5031   30.6298 H   0  0  0  0  0  0  0  0  0  0  0  0
   12.3362   38.3586   34.7452 H   0  0  0  0  0  0  0  0  0  0  0  0
   16.7573   34.1788   32.4619 H   0  0  0  0  0  0  0  0  0  0  0  0
   16.6366   34.5313   37.1415 H   0  0  0  0  0  0  0  0  0  0  0  0
   15.3534   35.7353   37.5139 H   0  0  0  0  0  0  0  0  0  0  0  0
  1  2  2  0
  1  3  1  0
  3  4  1  0
  4  5  1  0
  6  1  1  0
  7  6  1  0
  6  8  1  0
  8  9  1  0
  9 10  2  0
 11  9  1  0
 10 12  1  0
 13 11  2  0
 12 14  2  0
 14 13  1  0
 14 15  1  0
 15 16  1  0
  4 17  2  0
  4 18  1  0
 19 18  1  0
 19 20  1  0
 20 21  1  0
 20 22  1  0
 21 23  1  0
 22 24  1  0
 22 25  1  0
 25 23  1  0
 23 26  1  0
 25 27  1  0
 28 26  1  0
 29 26  1  0
 30 28  2  0
 28 31  1  0
 32 29  2  0
 33 30  1  0
 31 34  2  0
 31 32  1  0
 35 33  2  0
 35 34  1  0
 34 36  1  0
  6 37  1  1
  7 38  1  0
  7 39  1  0
  8 40  1  0
  8 41  1  0
 10 42  1  0
 11 43  1  0
 12 44  1  0
 13 45  1  0
 16 46  1  0
 16 47  1  0
 16 48  1  0
 19 49  1  0
 19 50  1  0
 20 51  1  0
 22 52  1  0
 23 53  1  0
 24 54  1  0
 25 55  1  0
 27 56  1  0
 29 57  1  0
 33 58  1  0
 36 59  1  0
 36 60  1  0
M  CHG  1   5  -1
M  END
>  <EmbedRMS>  (81) 
0.08871125762200371

$$$$

     RDKit          3D

 60 63  0  0  0  0  0  0  0  0999 V2000
   10.2940   43.7721   33.7964 C   0  0  0  0  0  0  0  0  0  0  0  0
   11.4139   43.5898   34.3580 O   0  0  0  0  0  0  0  0  0  0  0  0
    9.3670   42.7360   33.7088 O   0  0  0  0  0  0  0  0  0  0  0  0
    9.8870   41.2360   34.2839 P   0  0  0  0  0  5  0  0  0  0  0  0
   10.3707   41.4671   35.8740 O   0  0  0  0  0  1  0  0  0  0  0  0
    9.9762   45.1033   33.2097 C   0  0  1  0  0  0  0  0  0  0  0  0
   11.0440   46.0545   33.5253 N   0  0  0  0  0  0  0  0  0  0  0  0
    9.7503   45.0008   31.6774 C   0  0  0  0  0  0  0  0  0  0  0  0
   10.9971   45.2128   30.8403 C   0  0  0  0  0  0  0  0  0  0  0  0
   12.1342   44.4071   31.0156 C   0  0  0  0  0  0  0  0  0  0  0  0
   11.0173   46.2085   29.8490 C   0  0  0  0  0  0  0  0  0  0  0  0
   13.2699   44.5968   30.2235 C   0  0  0  0  0  0  0  0  0  0  0  0
   12.1532   46.3981   29.0570 C   0  0  0  0  0  0  0  0  0  0  0  0
   13.2865   45.5977   29.2347 C   0  0  0  0  0  0  0  0  0  0  0  0
   14.4009   45.8271   28.4142 O   0  0  0  0  0  0  0  0  0  0  0  0
   15.6165   45.0891   28.4852 C   0  0  0  0  0  0  0  0  0  0  0  0
    8.8090   40.1934   34.2084 O   0  0  0  0  0  0  0  0  0  0  0  0
   11.2368   40.7962   33.3611 O   0  0  0  0  0  0  0  0  0  0  0  0
   10.9051   40.6775   31.9910 C   0  0  0  0  0  0  0  0  0  0  0  0
   11.5135   39.3733   31.4398 C   0  0  0  0  0  0  0  0  0  0  0  0
   12.7444   39.0848   32.0751 O   0  0  0  0  0  0  0  0  0  0  0  0
   10.6038   38.1825   31.6674 C   0  0  0  0  0  0  0  0  0  0  0  0
   12.9343   37.6788   32.0285 C   0  0  0  0  0  0  0  0  0  0  0  0
    9.6370   38.0880   30.6491 O   0  0  0  0  0  0  0  0  0  0  0  0
   11.5768   37.0106   31.7054 C   0  0  0  0  0  0  0  0  0  0  0  0
   13.4910   37.2177   33.3235 N   0  0  0  0  0  0  0  0  0  0  0  0
   11.6247   36.3361   30.4675 O   0  0  0  0  0  0  0  0  0  0  0  0
   14.4765   36.3271   33.5728 C   0  0  0  0  0  0  0  0  0  0  0  0
   13.1182   37.6315   34.5687 C   0  0  0  0  0  0  0  0  0  0  0  0
   15.2066   35.6137   32.6739 N   0  0  0  0  0  0  0  0  0  0  0  0
   14.6736   36.2276   34.9182 C   0  0  0  0  0  0  0  0  0  0  0  0
   13.8228   37.0457   35.5782 N   0  0  0  0  0  0  0  0  0  0  0  0
   16.1638   34.7592   33.1548 C   0  0  0  0  0  0  0  0  0  0  0  0
   15.6517   35.3492   35.4131 C   0  0  0  0  0  0  0  0  0  0  0  0
   16.3793   34.6309   34.5043 N   0  0  0  0  0  0  0  0  0  0  0  0
   15.9003   35.1934   36.8090 N   0  0  0  0  0  0  0  0  0  0  0  0
    9.0285   45.4512   33.6801 H   0  0  0  0  0  0  0  0  0  0  0  0
   11.0596   46.2027   34.5613 H   0  0  0  0  0  0  0  0  0  0  0  0
   10.7871   46.9815   33.1136 H   0  0  0  0  0  0  0  0  0  0  0  0
    8.9885   45.7632   31.4023 H   0  0  0  0  0  0  0  0  0  0  0  0
    9.3020   44.0198   31.4071 H   0  0  0  0  0  0  0  0  0  0  0  0
   12.1537   43.6409   31.7744 H   0  0  0  0  0  0  0  0  0  0  0  0
   10.1535   46.8408   29.6857 H   0  0  0  0  0  0  0  0  0  0  0  0
   14.1291   43.9613   30.3893 H   0  0  0  0  0  0  0  0  0  0  0  0
   12.1523   47.1710   28.2988 H   0  0  0  0  0  0  0  0  0  0  0  0
   16.0757   45.2056   29.4896 H   0  0  0  0  0  0  0  0  0  0  0  0
   16.3228   45.4797   27.7243 H   0  0  0  0  0  0  0  0  0  0  0  0
   15.4245   44.0158   28.2746 H   0  0  0  0  0  0  0  0  0  0  0  0
   11.3662   41.5261   31.4494 H   0  0  0  0  0  0  0  0  0  0  0  0
    9.8134   40.7065   31.7614 H   0  0  0  0  0  0  0  0  0  0  0  0
   11.6962   39.4963   30.3470 H   0  0  0  0  0  0  0  0  0  0  0  0
   10.1086   38.2716   32.6635 H   0  0  0  0  0  0  0  0  0  0  0  0
   13.6676   37.4559   31.2216 H   0  0  0  0  0  0  0  0  0  0  0  0
    8.9779   37.4109   30.9527 H   0  0  0  0  0  0  0  0  0  0  0  0
   11.2879   36.3007   32.5168 H   0  0  0  0  0  0  0  0  0  0  0  0
   10.8714   35.6895   30.4646 H   0  0  0  0  0  0  0  0  0  0  0  0
   12.3356   38.3586   34.7441 H   0  0  0  0  0  0  0  0  0  0  0  0
   16.7572   34.1786   32.4621 H   0  0  0  0  0  0  0  0  0  0  0  0
   15.3531   35.7357   37.5138 H   0  0  0  0  0  0  0  0  0  0  0  0
   16.6361   34.5315   37.1415 H   0  0  0  0  0  0  0  0  0  0  0  0
  1  2  2  0
  1  3  1  0
  3  4  1  0
  4  5  1  0
  6  1  1  0
  7  6  1  0
  6  8  1  0
  8  9  1  0
  9 10  2  0
 11  9  1  0
 10 12  1  0
 13 11  2  0
 12 14  2  0
 14 13  1  0
 14 15  1  0
 15 16  1  0
  4 17  2  0
  4 18  1  0
 19 18  1  0
 19 20  1  0
 20 21  1  0
 20 22  1  0
 21 23  1  0
 22 24  1  0
 22 25  1  0
 25 23  1  0
 23 26  1  0
 25 27  1  0
 28 26  1  0
 29 26  1  0
 30 28  2  0
 28 31  1  0
 32 29  2  0
 33 30  1  0
 31 34  2  0
 31 32  1  0
 35 33  2  0
 35 34  1  0
 34 36  1  0
  6 37  1  1
  7 38  1  0
  7 39  1  0
  8 40  1  0
  8 41  1  0
 10 42  1  0
 11 43  1  0
 12 44  1  0
 13 45  1  0
 16 46  1  0
 16 47  1  0
 16 48  1  0
 19 49  1  0
 19 50  1  0
 20 51  1  0
 22 52  1  0
 23 53  1  0
 24 54  1  0
 25 55  1  0
 27 56  1  0
 29 57  1  0
 33 58  1  0
 36 59  1  0
 36 60  1  0
M  CHG  1   5  -1
M  END
>  <EmbedRMS>  (82) 
0.08982248030688603

$$$$

     RDKit          3D

 60 63  0  0  0  0  0  0  0  0999 V2000
   10.2905   43.7659   33.7844 C   0  0  0  0  0  0  0  0  0  0  0  0
   11.4133   43.5737   34.3379 O   0  0  0  0  0  0  0  0  0  0  0  0
    9.3653   42.7302   33.6894 O   0  0  0  0  0  0  0  0  0  0  0  0
    9.8812   41.2331   34.2806 P   0  0  0  0  0  5  0  0  0  0  0  0
   10.3602   41.4727   35.8714 O   0  0  0  0  0  1  0  0  0  0  0  0
    9.9342   45.1398   33.3236 C   0  0  1  0  0  0  0  0  0  0  0  0
   11.0769   46.0470   33.4461 N   0  0  0  0  0  0  0  0  0  0  0  0
    9.3113   45.2010   31.9129 C   0  0  0  0  0  0  0  0  0  0  0  0
   10.1567   44.5964   30.8174 C   0  0  0  0  0  0  0  0  0  0  0  0
    9.7951   43.3662   30.2470 C   0  0  0  0  0  0  0  0  0  0  0  0
   11.2640   45.2886   30.3018 C   0  0  0  0  0  0  0  0  0  0  0  0
   10.5458   42.8230   29.2005 C   0  0  0  0  0  0  0  0  0  0  0  0
   12.0222   44.7395   29.2633 C   0  0  0  0  0  0  0  0  0  0  0  0
   11.6682   43.4959   28.7066 C   0  0  0  0  0  0  0  0  0  0  0  0
   12.3978   42.9012   27.6666 O   0  0  0  0  0  0  0  0  0  0  0  0
   13.5615   43.4691   27.0746 C   0  0  0  0  0  0  0  0  0  0  0  0
    8.8033   40.1910   34.2074 O   0  0  0  0  0  0  0  0  0  0  0  0
   11.2360   40.7787   33.3747 O   0  0  0  0  0  0  0  0  0  0  0  0
   10.9266   40.6834   31.9995 C   0  0  0  0  0  0  0  0  0  0  0  0
   11.5207   39.3765   31.4413 C   0  0  0  0  0  0  0  0  0  0  0  0
   12.7515   39.0842   32.0741 O   0  0  0  0  0  0  0  0  0  0  0  0
   10.6077   38.1861   31.6668 C   0  0  0  0  0  0  0  0  0  0  0  0
   12.9378   37.6787   32.0287 C   0  0  0  0  0  0  0  0  0  0  0  0
    9.6414   38.0908   30.6482 O   0  0  0  0  0  0  0  0  0  0  0  0
   11.5784   37.0131   31.7048 C   0  0  0  0  0  0  0  0  0  0  0  0
   13.4914   37.2168   33.3239 N   0  0  0  0  0  0  0  0  0  0  0  0
   11.6111   36.3389   30.4674 O   0  0  0  0  0  0  0  0  0  0  0  0
   14.4768   36.3265   33.5732 C   0  0  0  0  0  0  0  0  0  0  0  0
   13.1184   37.6311   34.5688 C   0  0  0  0  0  0  0  0  0  0  0  0
   15.2069   35.6134   32.6743 N   0  0  0  0  0  0  0  0  0  0  0  0
   14.6737   36.2271   34.9186 C   0  0  0  0  0  0  0  0  0  0  0  0
   13.8229   37.0454   35.5785 N   0  0  0  0  0  0  0  0  0  0  0  0
   16.1641   34.7590   33.1551 C   0  0  0  0  0  0  0  0  0  0  0  0
   15.6519   35.3490   35.4134 C   0  0  0  0  0  0  0  0  0  0  0  0
   16.3795   34.6307   34.5046 N   0  0  0  0  0  0  0  0  0  0  0  0
   15.9005   35.1932   36.8093 N   0  0  0  0  0  0  0  0  0  0  0  0
    9.1476   45.5048   34.0211 H   0  0  0  0  0  0  0  0  0  0  0  0
   11.3029   46.1803   34.4593 H   0  0  0  0  0  0  0  0  0  0  0  0
   11.9200   45.6337   32.9850 H   0  0  0  0  0  0  0  0  0  0  0  0
    8.3186   44.6997   31.9435 H   0  0  0  0  0  0  0  0  0  0  0  0
    9.1046   46.2638   31.6590 H   0  0  0  0  0  0  0  0  0  0  0  0
    8.9305   42.8254   30.6111 H   0  0  0  0  0  0  0  0  0  0  0  0
   11.5345   46.2607   30.6936 H   0  0  0  0  0  0  0  0  0  0  0  0
   10.2590   41.8683   28.7779 H   0  0  0  0  0  0  0  0  0  0  0  0
   12.8746   45.2936   28.8950 H   0  0  0  0  0  0  0  0  0  0  0  0
   14.3558   43.5965   27.8402 H   0  0  0  0  0  0  0  0  0  0  0  0
   13.3155   44.4481   26.6119 H   0  0  0  0  0  0  0  0  0  0  0  0
   13.9359   42.7867   26.2843 H   0  0  0  0  0  0  0  0  0  0  0  0
    9.8407   40.7356   31.7493 H   0  0  0  0  0  0  0  0  0  0  0  0
   11.4320   41.5299   31.4928 H   0  0  0  0  0  0  0  0  0  0  0  0
   11.7016   39.5037   30.3487 H   0  0  0  0  0  0  0  0  0  0  0  0
   10.1105   38.2765   32.6615 H   0  0  0  0  0  0  0  0  0  0  0  0
   13.6716   37.4547   31.2226 H   0  0  0  0  0  0  0  0  0  0  0  0
    9.0027   37.3876   30.9357 H   0  0  0  0  0  0  0  0  0  0  0  0
   11.2696   36.3047   32.5091 H   0  0  0  0  0  0  0  0  0  0  0  0
   12.1413   35.5126   30.6140 H   0  0  0  0  0  0  0  0  0  0  0  0
   12.3360   38.3585   34.7439 H   0  0  0  0  0  0  0  0  0  0  0  0
   16.7575   34.1784   32.4624 H   0  0  0  0  0  0  0  0  0  0  0  0
   16.6364   34.5314   37.1418 H   0  0  0  0  0  0  0  0  0  0  0  0
   15.3532   35.7355   37.5141 H   0  0  0  0  0  0  0  0  0  0  0  0
  1  2  2  0
  1  3  1  0
  3  4  1  0
  4  5  1  0
  6  1  1  0
  7  6  1  0
  6  8  1  0
  8  9  1  0
  9 10  2  0
 11  9  1  0
 10 12  1  0
 13 11  2  0
 12 14  2  0
 14 13  1  0
 14 15  1  0
 15 16  1  0
  4 17  2  0
  4 18  1  0
 19 18  1  0
 19 20  1  0
 20 21  1  0
 20 22  1  0
 21 23  1  0
 22 24  1  0
 22 25  1  0
 25 23  1  0
 23 26  1  0
 25 27  1  0
 28 26  1  0
 29 26  1  0
 30 28  2  0
 28 31  1  0
 32 29  2  0
 33 30  1  0
 31 34  2  0
 31 32  1  0
 35 33  2  0
 35 34  1  0
 34 36  1  0
  6 37  1  1
  7 38  1  0
  7 39  1  0
  8 40  1  0
  8 41  1  0
 10 42  1  0
 11 43  1  0
 12 44  1  0
 13 45  1  0
 16 46  1  0
 16 47  1  0
 16 48  1  0
 19 49  1  0
 19 50  1  0
 20 51  1  0
 22 52  1  0
 23 53  1  0
 24 54  1  0
 25 55  1  0
 27 56  1  0
 29 57  1  0
 33 58  1  0
 36 59  1  0
 36 60  1  0
M  CHG  1   5  -1
M  END
>  <EmbedRMS>  (83) 
0.09321441853417536

$$$$

     RDKit          3D

 60 63  0  0  0  0  0  0  0  0999 V2000
   10.3002   43.7680   33.7921 C   0  0  0  0  0  0  0  0  0  0  0  0
   11.4164   43.5823   34.3591 O   0  0  0  0  0  0  0  0  0  0  0  0
    9.3699   42.7348   33.7050 O   0  0  0  0  0  0  0  0  0  0  0  0
    9.8865   41.2349   34.2837 P   0  0  0  0  0  5  0  0  0  0  0  0
   10.3686   41.4672   35.8741 O   0  0  0  0  0  1  0  0  0  0  0  0
    9.9791   45.1074   33.2198 C   0  0  1  0  0  0  0  0  0  0  0  0
   11.0353   46.0790   33.5231 N   0  0  0  0  0  0  0  0  0  0  0  0
    9.6878   45.0386   31.6974 C   0  0  0  0  0  0  0  0  0  0  0  0
   10.8885   45.2701   30.8017 C   0  0  0  0  0  0  0  0  0  0  0  0
   10.8759   46.3143   29.8612 C   0  0  0  0  0  0  0  0  0  0  0  0
   12.0116   44.4307   30.8682 C   0  0  0  0  0  0  0  0  0  0  0  0
   11.9666   46.5174   29.0102 C   0  0  0  0  0  0  0  0  0  0  0  0
   13.1020   44.6341   30.0186 C   0  0  0  0  0  0  0  0  0  0  0  0
   13.0909   45.6743   29.0837 C   0  0  0  0  0  0  0  0  0  0  0  0
   14.2095   45.8365   28.2529 O   0  0  0  0  0  0  0  0  0  0  0  0
   14.3333   46.8501   27.2606 C   0  0  0  0  0  0  0  0  0  0  0  0
    8.8079   40.1930   34.2074 O   0  0  0  0  0  0  0  0  0  0  0  0
   11.2375   40.7934   33.3638 O   0  0  0  0  0  0  0  0  0  0  0  0
   10.9093   40.6787   31.9929 C   0  0  0  0  0  0  0  0  0  0  0  0
   11.5135   39.3740   31.4402 C   0  0  0  0  0  0  0  0  0  0  0  0
   12.7448   39.0845   32.0743 O   0  0  0  0  0  0  0  0  0  0  0  0
   10.6020   38.1833   31.6674 C   0  0  0  0  0  0  0  0  0  0  0  0
   12.9333   37.6786   32.0282 C   0  0  0  0  0  0  0  0  0  0  0  0
    9.6388   38.0727   30.6460 O   0  0  0  0  0  0  0  0  0  0  0  0
   11.5748   37.0119   31.7054 C   0  0  0  0  0  0  0  0  0  0  0  0
   13.4904   37.2174   33.3233 N   0  0  0  0  0  0  0  0  0  0  0  0
   11.6226   36.3360   30.4683 O   0  0  0  0  0  0  0  0  0  0  0  0
   14.4762   36.3271   33.5726 C   0  0  0  0  0  0  0  0  0  0  0  0
   13.1179   37.6314   34.5685 C   0  0  0  0  0  0  0  0  0  0  0  0
   15.2064   35.6137   32.6738 N   0  0  0  0  0  0  0  0  0  0  0  0
   14.6735   36.2277   34.9181 C   0  0  0  0  0  0  0  0  0  0  0  0
   13.8227   37.0458   35.5781 N   0  0  0  0  0  0  0  0  0  0  0  0
   16.1637   34.7593   33.1547 C   0  0  0  0  0  0  0  0  0  0  0  0
   15.6516   35.3493   35.4130 C   0  0  0  0  0  0  0  0  0  0  0  0
   16.3792   34.6310   34.5042 N   0  0  0  0  0  0  0  0  0  0  0  0
   15.9002   35.1935   36.8089 N   0  0  0  0  0  0  0  0  0  0  0  0
    9.0445   45.4463   33.7201 H   0  0  0  0  0  0  0  0  0  0  0  0
   11.9765   45.7171   33.2468 H   0  0  0  0  0  0  0  0  0  0  0  0
   11.0551   46.2448   34.5562 H   0  0  0  0  0  0  0  0  0  0  0  0
    8.9106   45.8019   31.4718 H   0  0  0  0  0  0  0  0  0  0  0  0
    9.2296   44.0615   31.4298 H   0  0  0  0  0  0  0  0  0  0  0  0
   10.0204   46.9735   29.7823 H   0  0  0  0  0  0  0  0  0  0  0  0
   12.0595   43.6386   31.5980 H   0  0  0  0  0  0  0  0  0  0  0  0
   11.9243   47.3307   28.2987 H   0  0  0  0  0  0  0  0  0  0  0  0
   13.9632   43.9818   30.0903 H   0  0  0  0  0  0  0  0  0  0  0  0
   13.5296   46.7420   26.5020 H   0  0  0  0  0  0  0  0  0  0  0  0
   14.2818   47.8543   27.7321 H   0  0  0  0  0  0  0  0  0  0  0  0
   15.3152   46.7449   26.7554 H   0  0  0  0  0  0  0  0  0  0  0  0
    9.8198   40.7225   31.7592 H   0  0  0  0  0  0  0  0  0  0  0  0
   11.3806   41.5216   31.4546 H   0  0  0  0  0  0  0  0  0  0  0  0
   11.6948   39.4972   30.3473 H   0  0  0  0  0  0  0  0  0  0  0  0
   10.1082   38.2557   32.6662 H   0  0  0  0  0  0  0  0  0  0  0  0
   13.6661   37.4548   31.2211 H   0  0  0  0  0  0  0  0  0  0  0  0
    8.8898   38.6754   30.8917 H   0  0  0  0  0  0  0  0  0  0  0  0
   11.2869   36.3010   32.5164 H   0  0  0  0  0  0  0  0  0  0  0  0
   10.8553   35.7061   30.4575 H   0  0  0  0  0  0  0  0  0  0  0  0
   12.3352   38.3585   34.7440 H   0  0  0  0  0  0  0  0  0  0  0  0
   16.7571   34.1787   32.4620 H   0  0  0  0  0  0  0  0  0  0  0  0
   15.3530   35.7358   37.5137 H   0  0  0  0  0  0  0  0  0  0  0  0
   16.6361   34.5316   37.1414 H   0  0  0  0  0  0  0  0  0  0  0  0
  1  2  2  0
  1  3  1  0
  3  4  1  0
  4  5  1  0
  6  1  1  0
  7  6  1  0
  6  8  1  0
  8  9  1  0
  9 10  2  0
 11  9  1  0
 10 12  1  0
 13 11  2  0
 12 14  2  0
 14 13  1  0
 14 15  1  0
 15 16  1  0
  4 17  2  0
  4 18  1  0
 19 18  1  0
 19 20  1  0
 20 21  1  0
 20 22  1  0
 21 23  1  0
 22 24  1  0
 22 25  1  0
 25 23  1  0
 23 26  1  0
 25 27  1  0
 28 26  1  0
 29 26  1  0
 30 28  2  0
 28 31  1  0
 32 29  2  0
 33 30  1  0
 31 34  2  0
 31 32  1  0
 35 33  2  0
 35 34  1  0
 34 36  1  0
  6 37  1  1
  7 38  1  0
  7 39  1  0
  8 40  1  0
  8 41  1  0
 10 42  1  0
 11 43  1  0
 12 44  1  0
 13 45  1  0
 16 46  1  0
 16 47  1  0
 16 48  1  0
 19 49  1  0
 19 50  1  0
 20 51  1  0
 22 52  1  0
 23 53  1  0
 24 54  1  0
 25 55  1  0
 27 56  1  0
 29 57  1  0
 33 58  1  0
 36 59  1  0
 36 60  1  0
M  CHG  1   5  -1
M  END
>  <EmbedRMS>  (84) 
0.09160955381350151

$$$$

     RDKit          3D

 60 63  0  0  0  0  0  0  0  0999 V2000
   10.2870   43.7692   33.7897 C   0  0  0  0  0  0  0  0  0  0  0  0
   11.4139   43.5805   34.3361 O   0  0  0  0  0  0  0  0  0  0  0  0
    9.3642   42.7312   33.6955 O   0  0  0  0  0  0  0  0  0  0  0  0
    9.8819   41.2340   34.2836 P   0  0  0  0  0  5  0  0  0  0  0  0
   10.3612   41.4724   35.8741 O   0  0  0  0  0  1  0  0  0  0  0  0
    9.9370   45.1297   33.2923 C   0  0  1  0  0  0  0  0  0  0  0  0
   11.0775   46.0313   33.4634 N   0  0  0  0  0  0  0  0  0  0  0  0
    9.4233   45.1274   31.8318 C   0  0  0  0  0  0  0  0  0  0  0  0
   10.2772   44.3554   30.8490 C   0  0  0  0  0  0  0  0  0  0  0  0
   11.6116   44.7198   30.6051 C   0  0  0  0  0  0  0  0  0  0  0  0
    9.7089   43.3118   30.0984 C   0  0  0  0  0  0  0  0  0  0  0  0
   12.3757   44.0243   29.6628 C   0  0  0  0  0  0  0  0  0  0  0  0
   10.4685   42.6280   29.1451 C   0  0  0  0  0  0  0  0  0  0  0  0
   11.8077   42.9671   28.9272 C   0  0  0  0  0  0  0  0  0  0  0  0
   12.5346   42.2341   27.9777 O   0  0  0  0  0  0  0  0  0  0  0  0
   13.9081   42.4532   27.6734 C   0  0  0  0  0  0  0  0  0  0  0  0
    8.8042   40.1915   34.2091 O   0  0  0  0  0  0  0  0  0  0  0  0
   11.2361   40.7797   33.3776 O   0  0  0  0  0  0  0  0  0  0  0  0
   10.9278   40.6896   32.0023 C   0  0  0  0  0  0  0  0  0  0  0  0
   11.5289   39.3882   31.4384 C   0  0  0  0  0  0  0  0  0  0  0  0
   12.7526   39.0878   32.0804 O   0  0  0  0  0  0  0  0  0  0  0  0
   10.6129   38.1917   31.6468 C   0  0  0  0  0  0  0  0  0  0  0  0
   12.9377   37.6813   32.0297 C   0  0  0  0  0  0  0  0  0  0  0  0
    9.6160   38.0874   30.6538 O   0  0  0  0  0  0  0  0  0  0  0  0
   11.5786   37.0146   31.7016 C   0  0  0  0  0  0  0  0  0  0  0  0
   13.4905   37.2161   33.3241 N   0  0  0  0  0  0  0  0  0  0  0  0
   11.6199   36.3261   30.4726 O   0  0  0  0  0  0  0  0  0  0  0  0
   14.4764   36.3262   33.5731 C   0  0  0  0  0  0  0  0  0  0  0  0
   13.1181   37.6305   34.5691 C   0  0  0  0  0  0  0  0  0  0  0  0
   15.2067   35.6134   32.6741 N   0  0  0  0  0  0  0  0  0  0  0  0
   14.6736   36.2269   34.9185 C   0  0  0  0  0  0  0  0  0  0  0  0
   13.8229   37.0451   35.5786 N   0  0  0  0  0  0  0  0  0  0  0  0
   16.1641   34.7591   33.1548 C   0  0  0  0  0  0  0  0  0  0  0  0
   15.6520   35.3489   35.4133 C   0  0  0  0  0  0  0  0  0  0  0  0
   16.3796   34.6308   34.5043 N   0  0  0  0  0  0  0  0  0  0  0  0
   15.9006   35.1931   36.8091 N   0  0  0  0  0  0  0  0  0  0  0  0
    9.1042   45.5036   33.9304 H   0  0  0  0  0  0  0  0  0  0  0  0
   11.2573   46.1519   34.4875 H   0  0  0  0  0  0  0  0  0  0  0  0
   10.8074   46.9805   33.1169 H   0  0  0  0  0  0  0  0  0  0  0  0
    9.3242   46.1730   31.4686 H   0  0  0  0  0  0  0  0  0  0  0  0
    8.3909   44.7127   31.8384 H   0  0  0  0  0  0  0  0  0  0  0  0
   12.0637   45.5478   31.1330 H   0  0  0  0  0  0  0  0  0  0  0  0
    8.6765   43.0226   30.2503 H   0  0  0  0  0  0  0  0  0  0  0  0
   13.4037   44.3222   29.5080 H   0  0  0  0  0  0  0  0  0  0  0  0
   10.0180   41.8194   28.5835 H   0  0  0  0  0  0  0  0  0  0  0  0
   14.5291   42.2999   28.5812 H   0  0  0  0  0  0  0  0  0  0  0  0
   14.0526   43.4816   27.2800 H   0  0  0  0  0  0  0  0  0  0  0  0
   14.2276   41.7279   26.8975 H   0  0  0  0  0  0  0  0  0  0  0  0
   11.4287   41.5423   31.5025 H   0  0  0  0  0  0  0  0  0  0  0  0
    9.8420   40.7414   31.7504 H   0  0  0  0  0  0  0  0  0  0  0  0
   11.7299   39.5335   30.3522 H   0  0  0  0  0  0  0  0  0  0  0  0
   10.1141   38.2747   32.6383 H   0  0  0  0  0  0  0  0  0  0  0  0
   13.6725   37.4603   31.2237 H   0  0  0  0  0  0  0  0  0  0  0  0
   10.0548   38.1161   29.7641 H   0  0  0  0  0  0  0  0  0  0  0  0
   11.2632   36.3147   32.5109 H   0  0  0  0  0  0  0  0  0  0  0  0
   12.1516   35.5030   30.6317 H   0  0  0  0  0  0  0  0  0  0  0  0
   12.3361   38.3583   34.7445 H   0  0  0  0  0  0  0  0  0  0  0  0
   16.7576   34.1787   32.4621 H   0  0  0  0  0  0  0  0  0  0  0  0
   15.3533   35.7353   37.5140 H   0  0  0  0  0  0  0  0  0  0  0  0
   16.6366   34.5315   37.1416 H   0  0  0  0  0  0  0  0  0  0  0  0
  1  2  2  0
  1  3  1  0
  3  4  1  0
  4  5  1  0
  6  1  1  0
  7  6  1  0
  6  8  1  0
  8  9  1  0
  9 10  2  0
 11  9  1  0
 10 12  1  0
 13 11  2  0
 12 14  2  0
 14 13  1  0
 14 15  1  0
 15 16  1  0
  4 17  2  0
  4 18  1  0
 19 18  1  0
 19 20  1  0
 20 21  1  0
 20 22  1  0
 21 23  1  0
 22 24  1  0
 22 25  1  0
 25 23  1  0
 23 26  1  0
 25 27  1  0
 28 26  1  0
 29 26  1  0
 30 28  2  0
 28 31  1  0
 32 29  2  0
 33 30  1  0
 31 34  2  0
 31 32  1  0
 35 33  2  0
 35 34  1  0
 34 36  1  0
  6 37  1  1
  7 38  1  0
  7 39  1  0
  8 40  1  0
  8 41  1  0
 10 42  1  0
 11 43  1  0
 12 44  1  0
 13 45  1  0
 16 46  1  0
 16 47  1  0
 16 48  1  0
 19 49  1  0
 19 50  1  0
 20 51  1  0
 22 52  1  0
 23 53  1  0
 24 54  1  0
 25 55  1  0
 27 56  1  0
 29 57  1  0
 33 58  1  0
 36 59  1  0
 36 60  1  0
M  CHG  1   5  -1
M  END
>  <EmbedRMS>  (85) 
0.0903025445093467

$$$$

     RDKit          3D

 60 63  0  0  0  0  0  0  0  0999 V2000
   10.2895   43.7709   33.7894 C   0  0  0  0  0  0  0  0  0  0  0  0
   11.4115   43.5887   34.3476 O   0  0  0  0  0  0  0  0  0  0  0  0
    9.3642   42.7335   33.7089 O   0  0  0  0  0  0  0  0  0  0  0  0
    9.8852   41.2351   34.2864 P   0  0  0  0  0  5  0  0  0  0  0  0
   10.3676   41.4684   35.8763 O   0  0  0  0  0  1  0  0  0  0  0  0
    9.9589   45.1133   33.2311 C   0  0  1  0  0  0  0  0  0  0  0  0
   11.0633   46.0340   33.5072 N   0  0  0  0  0  0  0  0  0  0  0  0
    9.6717   45.0599   31.7111 C   0  0  0  0  0  0  0  0  0  0  0  0
    8.4279   44.2727   31.3737 C   0  0  0  0  0  0  0  0  0  0  0  0
    8.5195   43.0830   30.6348 C   0  0  0  0  0  0  0  0  0  0  0  0
    7.1653   44.7238   31.7903 C   0  0  0  0  0  0  0  0  0  0  0  0
    7.3722   42.3398   30.3461 C   0  0  0  0  0  0  0  0  0  0  0  0
    6.0169   43.9817   31.4986 C   0  0  0  0  0  0  0  0  0  0  0  0
    6.1145   42.7774   30.7757 C   0  0  0  0  0  0  0  0  0  0  0  0
    4.9937   41.9937   30.4637 O   0  0  0  0  0  0  0  0  0  0  0  0
    3.6585   42.3156   30.8392 C   0  0  0  0  0  0  0  0  0  0  0  0
    8.8075   40.1923   34.2101 O   0  0  0  0  0  0  0  0  0  0  0  0
   11.2367   40.7912   33.3691 O   0  0  0  0  0  0  0  0  0  0  0  0
   10.9132   40.6862   31.9971 C   0  0  0  0  0  0  0  0  0  0  0  0
   11.5257   39.3870   31.4376 C   0  0  0  0  0  0  0  0  0  0  0  0
   12.7489   39.0894   32.0826 O   0  0  0  0  0  0  0  0  0  0  0  0
   10.6123   38.1888   31.6462 C   0  0  0  0  0  0  0  0  0  0  0  0
   12.9374   37.6828   32.0302 C   0  0  0  0  0  0  0  0  0  0  0  0
    9.6151   38.0839   30.6537 O   0  0  0  0  0  0  0  0  0  0  0  0
   11.5795   37.0135   31.7012 C   0  0  0  0  0  0  0  0  0  0  0  0
   13.4906   37.2169   33.3243 N   0  0  0  0  0  0  0  0  0  0  0  0
   11.6219   36.3254   30.4721 O   0  0  0  0  0  0  0  0  0  0  0  0
   14.4763   36.3266   33.5731 C   0  0  0  0  0  0  0  0  0  0  0  0
   13.1181   37.6308   34.5695 C   0  0  0  0  0  0  0  0  0  0  0  0
   15.2065   35.6137   32.6740 N   0  0  0  0  0  0  0  0  0  0  0  0
   14.6736   36.2269   34.9185 C   0  0  0  0  0  0  0  0  0  0  0  0
   13.8229   37.0450   35.5788 N   0  0  0  0  0  0  0  0  0  0  0  0
   16.1639   34.7593   33.1547 C   0  0  0  0  0  0  0  0  0  0  0  0
   15.6519   35.3489   35.4132 C   0  0  0  0  0  0  0  0  0  0  0  0
   16.3795   34.6308   34.5042 N   0  0  0  0  0  0  0  0  0  0  0  0
   15.9006   35.1931   36.8090 N   0  0  0  0  0  0  0  0  0  0  0  0
    9.0574   45.4859   33.7647 H   0  0  0  0  0  0  0  0  0  0  0  0
   11.8785   45.8017   32.8926 H   0  0  0  0  0  0  0  0  0  0  0  0
   10.7584   47.0044   33.2625 H   0  0  0  0  0  0  0  0  0  0  0  0
    9.5347   46.0953   31.3301 H   0  0  0  0  0  0  0  0  0  0  0  0
   10.5561   44.6386   31.1831 H   0  0  0  0  0  0  0  0  0  0  0  0
    9.4791   42.7276   30.2830 H   0  0  0  0  0  0  0  0  0  0  0  0
    7.0700   45.6490   32.3447 H   0  0  0  0  0  0  0  0  0  0  0  0
    7.4608   41.4183   29.7846 H   0  0  0  0  0  0  0  0  0  0  0  0
    5.0600   44.3522   31.8397 H   0  0  0  0  0  0  0  0  0  0  0  0
    2.9763   41.5246   30.4660 H   0  0  0  0  0  0  0  0  0  0  0  0
    3.5744   42.3649   31.9455 H   0  0  0  0  0  0  0  0  0  0  0  0
    3.3585   43.2854   30.3892 H   0  0  0  0  0  0  0  0  0  0  0  0
   11.3760   41.5496   31.4732 H   0  0  0  0  0  0  0  0  0  0  0  0
    9.8223   40.7061   31.7653 H   0  0  0  0  0  0  0  0  0  0  0  0
   11.7284   39.5300   30.3517 H   0  0  0  0  0  0  0  0  0  0  0  0
   10.1136   38.2705   32.6380 H   0  0  0  0  0  0  0  0  0  0  0  0
   13.6727   37.4642   31.2242 H   0  0  0  0  0  0  0  0  0  0  0  0
   10.0536   38.1106   29.7638 H   0  0  0  0  0  0  0  0  0  0  0  0
   11.2649   36.3130   32.5103 H   0  0  0  0  0  0  0  0  0  0  0  0
   12.1557   35.5037   30.6309 H   0  0  0  0  0  0  0  0  0  0  0  0
   12.3362   38.3585   34.7451 H   0  0  0  0  0  0  0  0  0  0  0  0
   16.7574   34.1789   32.4619 H   0  0  0  0  0  0  0  0  0  0  0  0
   16.6366   34.5314   37.1415 H   0  0  0  0  0  0  0  0  0  0  0  0
   15.3533   35.7353   37.5139 H   0  0  0  0  0  0  0  0  0  0  0  0
  1  2  2  0
  1  3  1  0
  3  4  1  0
  4  5  1  0
  6  1  1  0
  7  6  1  0
  6  8  1  0
  8  9  1  0
  9 10  2  0
 11  9  1  0
 10 12  1  0
 13 11  2  0
 12 14  2  0
 14 13  1  0
 14 15  1  0
 15 16  1  0
  4 17  2  0
  4 18  1  0
 19 18  1  0
 19 20  1  0
 20 21  1  0
 20 22  1  0
 21 23  1  0
 22 24  1  0
 22 25  1  0
 25 23  1  0
 23 26  1  0
 25 27  1  0
 28 26  1  0
 29 26  1  0
 30 28  2  0
 28 31  1  0
 32 29  2  0
 33 30  1  0
 31 34  2  0
 31 32  1  0
 35 33  2  0
 35 34  1  0
 34 36  1  0
  6 37  1  1
  7 38  1  0
  7 39  1  0
  8 40  1  0
  8 41  1  0
 10 42  1  0
 11 43  1  0
 12 44  1  0
 13 45  1  0
 16 46  1  0
 16 47  1  0
 16 48  1  0
 19 49  1  0
 19 50  1  0
 20 51  1  0
 22 52  1  0
 23 53  1  0
 24 54  1  0
 25 55  1  0
 27 56  1  0
 29 57  1  0
 33 58  1  0
 36 59  1  0
 36 60  1  0
M  CHG  1   5  -1
M  END
>  <EmbedRMS>  (86) 
0.08813314851542131

$$$$

     RDKit          3D

 60 63  0  0  0  0  0  0  0  0999 V2000
   10.2876   43.7724   33.7999 C   0  0  0  0  0  0  0  0  0  0  0  0
   11.4101   43.5905   34.3570 O   0  0  0  0  0  0  0  0  0  0  0  0
    9.3641   42.7339   33.7093 O   0  0  0  0  0  0  0  0  0  0  0  0
    9.8853   41.2350   34.2859 P   0  0  0  0  0  5  0  0  0  0  0  0
   10.3679   41.4675   35.8759 O   0  0  0  0  0  1  0  0  0  0  0  0
    9.9623   45.1043   33.2248 C   0  0  1  0  0  0  0  0  0  0  0  0
   11.0639   46.0310   33.4993 N   0  0  0  0  0  0  0  0  0  0  0  0
    9.6876   44.9762   31.7099 C   0  0  0  0  0  0  0  0  0  0  0  0
    9.2406   46.2845   31.1099 C   0  0  0  0  0  0  0  0  0  0  0  0
    7.9158   46.7183   31.2705 C   0  0  0  0  0  0  0  0  0  0  0  0
   10.1510   47.0991   30.4191 C   0  0  0  0  0  0  0  0  0  0  0  0
    7.5031   47.9429   30.7372 C   0  0  0  0  0  0  0  0  0  0  0  0
    9.7380   48.3235   29.8863 C   0  0  0  0  0  0  0  0  0  0  0  0
    8.4155   48.7562   30.0382 C   0  0  0  0  0  0  0  0  0  0  0  0
    8.0510   49.9927   29.4850 O   0  0  0  0  0  0  0  0  0  0  0  0
    6.7453   50.5550   29.5643 C   0  0  0  0  0  0  0  0  0  0  0  0
    8.8082   40.1917   34.2095 O   0  0  0  0  0  0  0  0  0  0  0  0
   11.2367   40.7929   33.3676 O   0  0  0  0  0  0  0  0  0  0  0  0
   10.9139   40.6893   31.9949 C   0  0  0  0  0  0  0  0  0  0  0  0
   11.5254   39.3878   31.4369 C   0  0  0  0  0  0  0  0  0  0  0  0
   12.7485   39.0900   32.0824 O   0  0  0  0  0  0  0  0  0  0  0  0
   10.6120   38.1897   31.6461 C   0  0  0  0  0  0  0  0  0  0  0  0
   12.9371   37.6833   32.0302 C   0  0  0  0  0  0  0  0  0  0  0  0
    9.6149   38.0841   30.6537 O   0  0  0  0  0  0  0  0  0  0  0  0
   11.5792   37.0141   31.7014 C   0  0  0  0  0  0  0  0  0  0  0  0
   13.4906   37.2172   33.3242 N   0  0  0  0  0  0  0  0  0  0  0  0
   11.6217   36.3256   30.4726 O   0  0  0  0  0  0  0  0  0  0  0  0
   14.4763   36.3268   33.5730 C   0  0  0  0  0  0  0  0  0  0  0  0
   13.1181   37.6310   34.5695 C   0  0  0  0  0  0  0  0  0  0  0  0
   15.2065   35.6138   32.6739 N   0  0  0  0  0  0  0  0  0  0  0  0
   14.6735   36.2270   34.9184 C   0  0  0  0  0  0  0  0  0  0  0  0
   13.8228   37.0451   35.5787 N   0  0  0  0  0  0  0  0  0  0  0  0
   16.1638   34.7594   33.1546 C   0  0  0  0  0  0  0  0  0  0  0  0
   15.6518   35.3489   35.4131 C   0  0  0  0  0  0  0  0  0  0  0  0
   16.3794   34.6308   34.5041 N   0  0  0  0  0  0  0  0  0  0  0  0
   15.9005   35.1931   36.8089 N   0  0  0  0  0  0  0  0  0  0  0  0
    9.0443   45.4725   33.7345 H   0  0  0  0  0  0  0  0  0  0  0  0
   10.7422   47.0072   33.3069 H   0  0  0  0  0  0  0  0  0  0  0  0
   11.8657   45.8304   32.8569 H   0  0  0  0  0  0  0  0  0  0  0  0
    8.8902   44.2197   31.5379 H   0  0  0  0  0  0  0  0  0  0  0  0
   10.5972   44.6019   31.1891 H   0  0  0  0  0  0  0  0  0  0  0  0
    7.2029   46.1075   31.8108 H   0  0  0  0  0  0  0  0  0  0  0  0
   11.1812   46.7887   30.2960 H   0  0  0  0  0  0  0  0  0  0  0  0
    6.4750   48.2485   30.8758 H   0  0  0  0  0  0  0  0  0  0  0  0
   10.4502   48.9414   29.3543 H   0  0  0  0  0  0  0  0  0  0  0  0
    6.7400   51.5343   29.0434 H   0  0  0  0  0  0  0  0  0  0  0  0
    6.4626   50.7156   30.6262 H   0  0  0  0  0  0  0  0  0  0  0  0
    6.0104   49.8852   29.0699 H   0  0  0  0  0  0  0  0  0  0  0  0
   11.3794   41.5518   31.4715 H   0  0  0  0  0  0  0  0  0  0  0  0
    9.8234   40.7185   31.7594 H   0  0  0  0  0  0  0  0  0  0  0  0
   11.7286   39.5295   30.3508 H   0  0  0  0  0  0  0  0  0  0  0  0
   10.1135   38.2721   32.6379 H   0  0  0  0  0  0  0  0  0  0  0  0
   13.6723   37.4646   31.2240 H   0  0  0  0  0  0  0  0  0  0  0  0
   10.0536   38.1090   29.7638 H   0  0  0  0  0  0  0  0  0  0  0  0
   11.2645   36.3139   32.5108 H   0  0  0  0  0  0  0  0  0  0  0  0
   12.1552   35.5037   30.6317 H   0  0  0  0  0  0  0  0  0  0  0  0
   12.3362   38.3588   34.7452 H   0  0  0  0  0  0  0  0  0  0  0  0
   16.7572   34.1789   32.4618 H   0  0  0  0  0  0  0  0  0  0  0  0
   16.6366   34.5314   37.1414 H   0  0  0  0  0  0  0  0  0  0  0  0
   15.3533   35.7353   37.5139 H   0  0  0  0  0  0  0  0  0  0  0  0
  1  2  2  0
  1  3  1  0
  3  4  1  0
  4  5  1  0
  6  1  1  0
  7  6  1  0
  6  8  1  0
  8  9  1  0
  9 10  2  0
 11  9  1  0
 10 12  1  0
 13 11  2  0
 12 14  2  0
 14 13  1  0
 14 15  1  0
 15 16  1  0
  4 17  2  0
  4 18  1  0
 19 18  1  0
 19 20  1  0
 20 21  1  0
 20 22  1  0
 21 23  1  0
 22 24  1  0
 22 25  1  0
 25 23  1  0
 23 26  1  0
 25 27  1  0
 28 26  1  0
 29 26  1  0
 30 28  2  0
 28 31  1  0
 32 29  2  0
 33 30  1  0
 31 34  2  0
 31 32  1  0
 35 33  2  0
 35 34  1  0
 34 36  1  0
  6 37  1  1
  7 38  1  0
  7 39  1  0
  8 40  1  0
  8 41  1  0
 10 42  1  0
 11 43  1  0
 12 44  1  0
 13 45  1  0
 16 46  1  0
 16 47  1  0
 16 48  1  0
 19 49  1  0
 19 50  1  0
 20 51  1  0
 22 52  1  0
 23 53  1  0
 24 54  1  0
 25 55  1  0
 27 56  1  0
 29 57  1  0
 33 58  1  0
 36 59  1  0
 36 60  1  0
M  CHG  1   5  -1
M  END
>  <EmbedRMS>  (87) 
0.0875329587574346

$$$$

     RDKit          3D

 60 63  0  0  0  0  0  0  0  0999 V2000
   10.2877   43.7695   33.7811 C   0  0  0  0  0  0  0  0  0  0  0  0
   11.4118   43.5816   34.3338 O   0  0  0  0  0  0  0  0  0  0  0  0
    9.3648   42.7313   33.6886 O   0  0  0  0  0  0  0  0  0  0  0  0
    9.8820   41.2350   34.2813 P   0  0  0  0  0  5  0  0  0  0  0  0
   10.3606   41.4749   35.8720 O   0  0  0  0  0  1  0  0  0  0  0  0
    9.9273   45.1411   33.3249 C   0  0  1  0  0  0  0  0  0  0  0  0
   11.0837   46.0289   33.4529 N   0  0  0  0  0  0  0  0  0  0  0  0
    9.2695   45.2041   31.9245 C   0  0  0  0  0  0  0  0  0  0  0  0
   10.0902   44.6125   30.8039 C   0  0  0  0  0  0  0  0  0  0  0  0
    9.7567   43.3564   30.2751 C   0  0  0  0  0  0  0  0  0  0  0  0
   11.1397   45.3411   30.2216 C   0  0  0  0  0  0  0  0  0  0  0  0
   10.4826   42.8221   29.2068 C   0  0  0  0  0  0  0  0  0  0  0  0
   11.8730   44.8023   29.1601 C   0  0  0  0  0  0  0  0  0  0  0  0
   11.5501   43.5318   28.6469 C   0  0  0  0  0  0  0  0  0  0  0  0
   12.2568   42.9460   27.5863 O   0  0  0  0  0  0  0  0  0  0  0  0
   13.3647   43.5511   26.9278 C   0  0  0  0  0  0  0  0  0  0  0  0
    8.8045   40.1921   34.2082 O   0  0  0  0  0  0  0  0  0  0  0  0
   11.2367   40.7793   33.3764 O   0  0  0  0  0  0  0  0  0  0  0  0
   10.9280   40.6867   32.0012 C   0  0  0  0  0  0  0  0  0  0  0  0
   11.5295   39.3861   31.4385 C   0  0  0  0  0  0  0  0  0  0  0  0
   12.7530   39.0866   32.0806 O   0  0  0  0  0  0  0  0  0  0  0  0
   10.6133   38.1901   31.6472 C   0  0  0  0  0  0  0  0  0  0  0  0
   12.9381   37.6803   32.0299 C   0  0  0  0  0  0  0  0  0  0  0  0
    9.6161   38.0862   30.6544 O   0  0  0  0  0  0  0  0  0  0  0  0
   11.5790   37.0133   31.7016 C   0  0  0  0  0  0  0  0  0  0  0  0
   13.4906   37.2155   33.3243 N   0  0  0  0  0  0  0  0  0  0  0  0
   11.6203   36.3254   30.4724 O   0  0  0  0  0  0  0  0  0  0  0  0
   14.4765   36.3259   33.5733 C   0  0  0  0  0  0  0  0  0  0  0  0
   13.1181   37.6301   34.5693 C   0  0  0  0  0  0  0  0  0  0  0  0
   15.2068   35.6131   32.6742 N   0  0  0  0  0  0  0  0  0  0  0  0
   14.6738   36.2267   34.9187 C   0  0  0  0  0  0  0  0  0  0  0  0
   13.8230   37.0449   35.5788 N   0  0  0  0  0  0  0  0  0  0  0  0
   16.1643   34.7590   33.1550 C   0  0  0  0  0  0  0  0  0  0  0  0
   15.6521   35.3488   35.4134 C   0  0  0  0  0  0  0  0  0  0  0  0
   16.3798   34.6306   34.5045 N   0  0  0  0  0  0  0  0  0  0  0  0
   15.9007   35.1930   36.8093 N   0  0  0  0  0  0  0  0  0  0  0  0
    9.1612   45.5051   34.0444 H   0  0  0  0  0  0  0  0  0  0  0  0
   11.8532   45.7049   32.8242 H   0  0  0  0  0  0  0  0  0  0  0  0
   10.8107   46.9932   33.1537 H   0  0  0  0  0  0  0  0  0  0  0  0
    9.0387   46.2638   31.6793 H   0  0  0  0  0  0  0  0  0  0  0  0
    8.2835   44.6912   31.9770 H   0  0  0  0  0  0  0  0  0  0  0  0
    8.9315   42.7896   30.6875 H   0  0  0  0  0  0  0  0  0  0  0  0
   11.3836   46.3332   30.5796 H   0  0  0  0  0  0  0  0  0  0  0  0
   10.2188   41.8469   28.8173 H   0  0  0  0  0  0  0  0  0  0  0  0
   12.6815   45.3849   28.7404 H   0  0  0  0  0  0  0  0  0  0  0  0
   13.7325   42.8680   26.1351 H   0  0  0  0  0  0  0  0  0  0  0  0
   13.0531   44.5073   26.4567 H   0  0  0  0  0  0  0  0  0  0  0  0
   14.1872   43.7315   27.6518 H   0  0  0  0  0  0  0  0  0  0  0  0
    9.8416   40.7307   31.7521 H   0  0  0  0  0  0  0  0  0  0  0  0
   11.4267   41.5390   31.4972 H   0  0  0  0  0  0  0  0  0  0  0  0
   11.7304   39.5304   30.3522 H   0  0  0  0  0  0  0  0  0  0  0  0
   10.1148   38.2729   32.6389 H   0  0  0  0  0  0  0  0  0  0  0  0
   13.6730   37.4592   31.2240 H   0  0  0  0  0  0  0  0  0  0  0  0
   10.0547   38.1139   29.7646 H   0  0  0  0  0  0  0  0  0  0  0  0
   11.2638   36.3131   32.5107 H   0  0  0  0  0  0  0  0  0  0  0  0
   12.1521   35.5023   30.6311 H   0  0  0  0  0  0  0  0  0  0  0  0
   12.3360   38.3579   34.7445 H   0  0  0  0  0  0  0  0  0  0  0  0
   16.7578   34.1785   32.4622 H   0  0  0  0  0  0  0  0  0  0  0  0
   16.6367   34.5314   37.1418 H   0  0  0  0  0  0  0  0  0  0  0  0
   15.3534   35.7352   37.5141 H   0  0  0  0  0  0  0  0  0  0  0  0
  1  2  2  0
  1  3  1  0
  3  4  1  0
  4  5  1  0
  6  1  1  0
  7  6  1  0
  6  8  1  0
  8  9  1  0
  9 10  2  0
 11  9  1  0
 10 12  1  0
 13 11  2  0
 12 14  2  0
 14 13  1  0
 14 15  1  0
 15 16  1  0
  4 17  2  0
  4 18  1  0
 19 18  1  0
 19 20  1  0
 20 21  1  0
 20 22  1  0
 21 23  1  0
 22 24  1  0
 22 25  1  0
 25 23  1  0
 23 26  1  0
 25 27  1  0
 28 26  1  0
 29 26  1  0
 30 28  2  0
 28 31  1  0
 32 29  2  0
 33 30  1  0
 31 34  2  0
 31 32  1  0
 35 33  2  0
 35 34  1  0
 34 36  1  0
  6 37  1  1
  7 38  1  0
  7 39  1  0
  8 40  1  0
  8 41  1  0
 10 42  1  0
 11 43  1  0
 12 44  1  0
 13 45  1  0
 16 46  1  0
 16 47  1  0
 16 48  1  0
 19 49  1  0
 19 50  1  0
 20 51  1  0
 22 52  1  0
 23 53  1  0
 24 54  1  0
 25 55  1  0
 27 56  1  0
 29 57  1  0
 33 58  1  0
 36 59  1  0
 36 60  1  0
M  CHG  1   5  -1
M  END
>  <EmbedRMS>  (88) 
0.09181962974334493

$$$$

     RDKit          3D

 60 63  0  0  0  0  0  0  0  0999 V2000
   10.2905   43.7681   33.8033 C   0  0  0  0  0  0  0  0  0  0  0  0
   11.4118   43.5808   34.3606 O   0  0  0  0  0  0  0  0  0  0  0  0
    9.3647   42.7325   33.7094 O   0  0  0  0  0  0  0  0  0  0  0  0
    9.8845   41.2329   34.2855 P   0  0  0  0  0  5  0  0  0  0  0  0
   10.3661   41.4654   35.8760 O   0  0  0  0  0  1  0  0  0  0  0  0
    9.9699   45.1047   33.2279 C   0  0  1  0  0  0  0  0  0  0  0  0
   11.0568   46.0521   33.4895 N   0  0  0  0  0  0  0  0  0  0  0  0
    9.7181   44.9849   31.7139 C   0  0  0  0  0  0  0  0  0  0  0  0
    9.3019   46.3061   31.1199 C   0  0  0  0  0  0  0  0  0  0  0  0
    7.9669   46.7299   31.2059 C   0  0  0  0  0  0  0  0  0  0  0  0
   10.2511   47.1448   30.5157 C   0  0  0  0  0  0  0  0  0  0  0  0
    7.5824   47.9669   30.6800 C   0  0  0  0  0  0  0  0  0  0  0  0
    9.8663   48.3815   29.9901 C   0  0  0  0  0  0  0  0  0  0  0  0
    8.5338   48.8033   30.0652 C   0  0  0  0  0  0  0  0  0  0  0  0
    8.1985   50.0527   29.5224 O   0  0  0  0  0  0  0  0  0  0  0  0
    6.8866   50.6059   29.5292 C   0  0  0  0  0  0  0  0  0  0  0  0
    8.8072   40.1901   34.2080 O   0  0  0  0  0  0  0  0  0  0  0  0
   11.2374   40.7917   33.3686 O   0  0  0  0  0  0  0  0  0  0  0  0
   10.9182   40.6904   31.9950 C   0  0  0  0  0  0  0  0  0  0  0  0
   11.5166   39.3808   31.4400 C   0  0  0  0  0  0  0  0  0  0  0  0
   12.7474   39.0867   32.0737 O   0  0  0  0  0  0  0  0  0  0  0  0
   10.6028   38.1895   31.6666 C   0  0  0  0  0  0  0  0  0  0  0  0
   12.9333   37.6802   32.0280 C   0  0  0  0  0  0  0  0  0  0  0  0
    9.6396   38.0779   30.6455 O   0  0  0  0  0  0  0  0  0  0  0  0
   11.5738   37.0158   31.7057 C   0  0  0  0  0  0  0  0  0  0  0  0
   13.4903   37.2180   33.3230 N   0  0  0  0  0  0  0  0  0  0  0  0
   11.6211   36.3379   30.4696 O   0  0  0  0  0  0  0  0  0  0  0  0
   14.4761   36.3274   33.5724 C   0  0  0  0  0  0  0  0  0  0  0  0
   13.1178   37.6318   34.5684 C   0  0  0  0  0  0  0  0  0  0  0  0
   15.2063   35.6140   32.6736 N   0  0  0  0  0  0  0  0  0  0  0  0
   14.6733   36.2278   34.9179 C   0  0  0  0  0  0  0  0  0  0  0  0
   13.8225   37.0459   35.5779 N   0  0  0  0  0  0  0  0  0  0  0  0
   16.1635   34.7595   33.1545 C   0  0  0  0  0  0  0  0  0  0  0  0
   15.6515   35.3494   35.4128 C   0  0  0  0  0  0  0  0  0  0  0  0
   16.3790   34.6311   34.5040 N   0  0  0  0  0  0  0  0  0  0  0  0
   15.9001   35.1935   36.8087 N   0  0  0  0  0  0  0  0  0  0  0  0
    9.0438   45.4764   33.7195 H   0  0  0  0  0  0  0  0  0  0  0  0
   11.1821   46.1619   34.5227 H   0  0  0  0  0  0  0  0  0  0  0  0
   11.9533   45.6973   33.0813 H   0  0  0  0  0  0  0  0  0  0  0  0
    8.9155   44.2379   31.5246 H   0  0  0  0  0  0  0  0  0  0  0  0
   10.6339   44.6071   31.2066 H   0  0  0  0  0  0  0  0  0  0  0  0
    7.2240   46.1017   31.6821 H   0  0  0  0  0  0  0  0  0  0  0  0
   11.2892   46.8425   30.4534 H   0  0  0  0  0  0  0  0  0  0  0  0
    6.5456   48.2638   30.7589 H   0  0  0  0  0  0  0  0  0  0  0  0
   10.6082   49.0174   29.5240 H   0  0  0  0  0  0  0  0  0  0  0  0
    6.5327   50.7364   30.5737 H   0  0  0  0  0  0  0  0  0  0  0  0
    6.1909   49.9458   28.9692 H   0  0  0  0  0  0  0  0  0  0  0  0
    6.9092   51.5988   29.0352 H   0  0  0  0  0  0  0  0  0  0  0  0
    9.8303   40.7406   31.7554 H   0  0  0  0  0  0  0  0  0  0  0  0
   11.3990   41.5451   31.4727 H   0  0  0  0  0  0  0  0  0  0  0  0
   11.6978   39.5051   30.3474 H   0  0  0  0  0  0  0  0  0  0  0  0
   10.1085   38.2634   32.6648 H   0  0  0  0  0  0  0  0  0  0  0  0
   13.6654   37.4549   31.2207 H   0  0  0  0  0  0  0  0  0  0  0  0
    8.8967   38.6908   30.8844 H   0  0  0  0  0  0  0  0  0  0  0  0
   11.2845   36.3064   32.5176 H   0  0  0  0  0  0  0  0  0  0  0  0
   10.8523   35.7097   30.4590 H   0  0  0  0  0  0  0  0  0  0  0  0
   12.3353   38.3589   34.7440 H   0  0  0  0  0  0  0  0  0  0  0  0
   16.7569   34.1789   32.4618 H   0  0  0  0  0  0  0  0  0  0  0  0
   16.6359   34.5317   37.1413 H   0  0  0  0  0  0  0  0  0  0  0  0
   15.3529   35.7359   37.5136 H   0  0  0  0  0  0  0  0  0  0  0  0
  1  2  2  0
  1  3  1  0
  3  4  1  0
  4  5  1  0
  6  1  1  0
  7  6  1  0
  6  8  1  0
  8  9  1  0
  9 10  2  0
 11  9  1  0
 10 12  1  0
 13 11  2  0
 12 14  2  0
 14 13  1  0
 14 15  1  0
 15 16  1  0
  4 17  2  0
  4 18  1  0
 19 18  1  0
 19 20  1  0
 20 21  1  0
 20 22  1  0
 21 23  1  0
 22 24  1  0
 22 25  1  0
 25 23  1  0
 23 26  1  0
 25 27  1  0
 28 26  1  0
 29 26  1  0
 30 28  2  0
 28 31  1  0
 32 29  2  0
 33 30  1  0
 31 34  2  0
 31 32  1  0
 35 33  2  0
 35 34  1  0
 34 36  1  0
  6 37  1  1
  7 38  1  0
  7 39  1  0
  8 40  1  0
  8 41  1  0
 10 42  1  0
 11 43  1  0
 12 44  1  0
 13 45  1  0
 16 46  1  0
 16 47  1  0
 16 48  1  0
 19 49  1  0
 19 50  1  0
 20 51  1  0
 22 52  1  0
 23 53  1  0
 24 54  1  0
 25 55  1  0
 27 56  1  0
 29 57  1  0
 33 58  1  0
 36 59  1  0
 36 60  1  0
M  CHG  1   5  -1
M  END
>  <EmbedRMS>  (89) 
0.08986349976834505

$$$$

     RDKit          3D

 60 63  0  0  0  0  0  0  0  0999 V2000
   10.2940   43.7720   33.7965 C   0  0  0  0  0  0  0  0  0  0  0  0
   11.4140   43.5898   34.3580 O   0  0  0  0  0  0  0  0  0  0  0  0
    9.3670   42.7359   33.7091 O   0  0  0  0  0  0  0  0  0  0  0  0
    9.8867   41.2362   34.2853 P   0  0  0  0  0  5  0  0  0  0  0  0
   10.3693   41.4675   35.8755 O   0  0  0  0  0  1  0  0  0  0  0  0
    9.9760   45.1033   33.2100 C   0  0  1  0  0  0  0  0  0  0  0  0
   11.0441   46.0544   33.5249 N   0  0  0  0  0  0  0  0  0  0  0  0
    9.7485   45.0011   31.6779 C   0  0  0  0  0  0  0  0  0  0  0  0
   10.9940   45.2143   30.8390 C   0  0  0  0  0  0  0  0  0  0  0  0
   11.0097   46.2064   29.8440 C   0  0  0  0  0  0  0  0  0  0  0  0
   12.1337   44.4126   31.0155 C   0  0  0  0  0  0  0  0  0  0  0  0
   12.1440   46.3967   29.0498 C   0  0  0  0  0  0  0  0  0  0  0  0
   13.2678   44.6031   30.2211 C   0  0  0  0  0  0  0  0  0  0  0  0
   13.2799   45.6004   29.2288 C   0  0  0  0  0  0  0  0  0  0  0  0
   14.3925   45.8304   28.4059 O   0  0  0  0  0  0  0  0  0  0  0  0
   15.6105   45.0964   28.4778 C   0  0  0  0  0  0  0  0  0  0  0  0
    8.8092   40.1931   34.2083 O   0  0  0  0  0  0  0  0  0  0  0  0
   11.2378   40.7964   33.3649 O   0  0  0  0  0  0  0  0  0  0  0  0
   10.9098   40.6832   31.9940 C   0  0  0  0  0  0  0  0  0  0  0  0
   11.5144   39.3783   31.4417 C   0  0  0  0  0  0  0  0  0  0  0  0
   12.7467   39.0886   32.0768 O   0  0  0  0  0  0  0  0  0  0  0  0
   10.6026   38.1858   31.6664 C   0  0  0  0  0  0  0  0  0  0  0  0
   12.9398   37.6831   32.0279 C   0  0  0  0  0  0  0  0  0  0  0  0
    9.6370   38.0748   30.6475 O   0  0  0  0  0  0  0  0  0  0  0  0
   11.5810   37.0181   31.6934 C   0  0  0  0  0  0  0  0  0  0  0  0
   13.4902   37.2177   33.3239 N   0  0  0  0  0  0  0  0  0  0  0  0
   11.6130   36.3182   30.4672 O   0  0  0  0  0  0  0  0  0  0  0  0
   14.4759   36.3271   33.5732 C   0  0  0  0  0  0  0  0  0  0  0  0
   13.1176   37.6317   34.5689 C   0  0  0  0  0  0  0  0  0  0  0  0
   15.2064   35.6141   32.6742 N   0  0  0  0  0  0  0  0  0  0  0  0
   14.6730   36.2274   34.9185 C   0  0  0  0  0  0  0  0  0  0  0  0
   13.8222   37.0457   35.5784 N   0  0  0  0  0  0  0  0  0  0  0  0
   16.1637   34.7596   33.1549 C   0  0  0  0  0  0  0  0  0  0  0  0
   15.6514   35.3493   35.4133 C   0  0  0  0  0  0  0  0  0  0  0  0
   16.3791   34.6311   34.5044 N   0  0  0  0  0  0  0  0  0  0  0  0
   15.9002   35.1934   36.8091 N   0  0  0  0  0  0  0  0  0  0  0  0
    9.0287   45.4513   33.6813 H   0  0  0  0  0  0  0  0  0  0  0  0
   11.0604   46.2027   34.5609 H   0  0  0  0  0  0  0  0  0  0  0  0
   10.7870   46.9814   33.1134 H   0  0  0  0  0  0  0  0  0  0  0  0
    9.3008   44.0198   31.4078 H   0  0  0  0  0  0  0  0  0  0  0  0
    8.9857   45.7629   31.4040 H   0  0  0  0  0  0  0  0  0  0  0  0
   10.1436   46.8353   29.6794 H   0  0  0  0  0  0  0  0  0  0  0  0
   12.1567   43.6492   31.7769 H   0  0  0  0  0  0  0  0  0  0  0  0
   12.1396   47.1668   28.2888 H   0  0  0  0  0  0  0  0  0  0  0  0
   14.1291   43.9708   30.3880 H   0  0  0  0  0  0  0  0  0  0  0  0
   15.4215   44.0218   28.2712 H   0  0  0  0  0  0  0  0  0  0  0  0
   16.0706   45.2177   29.4812 H   0  0  0  0  0  0  0  0  0  0  0  0
   16.3145   45.4865   27.7146 H   0  0  0  0  0  0  0  0  0  0  0  0
    9.8202   40.7256   31.7606 H   0  0  0  0  0  0  0  0  0  0  0  0
   11.3796   41.5300   31.4573 H   0  0  0  0  0  0  0  0  0  0  0  0
   11.6963   39.5042   30.3492 H   0  0  0  0  0  0  0  0  0  0  0  0
   10.1122   38.2535   32.6671 H   0  0  0  0  0  0  0  0  0  0  0  0
   13.6803   37.4642   31.2269 H   0  0  0  0  0  0  0  0  0  0  0  0
    8.8899   38.6795   30.8939 H   0  0  0  0  0  0  0  0  0  0  0  0
   11.2848   36.3027   32.4921 H   0  0  0  0  0  0  0  0  0  0  0  0
   11.8875   36.9584   29.7591 H   0  0  0  0  0  0  0  0  0  0  0  0
   12.3361   38.3600   34.7443 H   0  0  0  0  0  0  0  0  0  0  0  0
   16.7572   34.1793   32.4621 H   0  0  0  0  0  0  0  0  0  0  0  0
   15.3529   35.7356   37.5140 H   0  0  0  0  0  0  0  0  0  0  0  0
   16.6362   34.5317   37.1416 H   0  0  0  0  0  0  0  0  0  0  0  0
  1  2  2  0
  1  3  1  0
  3  4  1  0
  4  5  1  0
  6  1  1  0
  7  6  1  0
  6  8  1  0
  8  9  1  0
  9 10  2  0
 11  9  1  0
 10 12  1  0
 13 11  2  0
 12 14  2  0
 14 13  1  0
 14 15  1  0
 15 16  1  0
  4 17  2  0
  4 18  1  0
 19 18  1  0
 19 20  1  0
 20 21  1  0
 20 22  1  0
 21 23  1  0
 22 24  1  0
 22 25  1  0
 25 23  1  0
 23 26  1  0
 25 27  1  0
 28 26  1  0
 29 26  1  0
 30 28  2  0
 28 31  1  0
 32 29  2  0
 33 30  1  0
 31 34  2  0
 31 32  1  0
 35 33  2  0
 35 34  1  0
 34 36  1  0
  6 37  1  1
  7 38  1  0
  7 39  1  0
  8 40  1  0
  8 41  1  0
 10 42  1  0
 11 43  1  0
 12 44  1  0
 13 45  1  0
 16 46  1  0
 16 47  1  0
 16 48  1  0
 19 49  1  0
 19 50  1  0
 20 51  1  0
 22 52  1  0
 23 53  1  0
 24 54  1  0
 25 55  1  0
 27 56  1  0
 29 57  1  0
 33 58  1  0
 36 59  1  0
 36 60  1  0
M  CHG  1   5  -1
M  END
>  <EmbedRMS>  (90) 
0.08909553422826628

$$$$

     RDKit          3D

 60 63  0  0  0  0  0  0  0  0999 V2000
   10.2891   43.7708   33.7903 C   0  0  0  0  0  0  0  0  0  0  0  0
   11.4142   43.5855   34.3415 O   0  0  0  0  0  0  0  0  0  0  0  0
    9.3633   42.7337   33.7099 O   0  0  0  0  0  0  0  0  0  0  0  0
    9.8846   41.2350   34.2866 P   0  0  0  0  0  5  0  0  0  0  0  0
   10.3672   41.4682   35.8765 O   0  0  0  0  0  1  0  0  0  0  0  0
    9.9603   45.1140   33.2284 C   0  0  1  0  0  0  0  0  0  0  0  0
   11.0606   46.0372   33.5112 N   0  0  0  0  0  0  0  0  0  0  0  0
    9.7264   45.0479   31.7016 C   0  0  0  0  0  0  0  0  0  0  0  0
    8.5166   44.2274   31.3201 C   0  0  0  0  0  0  0  0  0  0  0  0
    7.2309   44.6222   31.7240 C   0  0  0  0  0  0  0  0  0  0  0  0
    8.6625   43.0680   30.5427 C   0  0  0  0  0  0  0  0  0  0  0  0
    6.1149   43.8503   31.3874 C   0  0  0  0  0  0  0  0  0  0  0  0
    7.5474   42.2952   30.2089 C   0  0  0  0  0  0  0  0  0  0  0  0
    6.2678   42.6740   30.6291 C   0  0  0  0  0  0  0  0  0  0  0  0
    5.1812   41.8619   30.2720 O   0  0  0  0  0  0  0  0  0  0  0  0
    3.8292   42.1240   30.6334 C   0  0  0  0  0  0  0  0  0  0  0  0
    8.8071   40.1921   34.2102 O   0  0  0  0  0  0  0  0  0  0  0  0
   11.2365   40.7905   33.3700 O   0  0  0  0  0  0  0  0  0  0  0  0
   10.9144   40.6864   31.9977 C   0  0  0  0  0  0  0  0  0  0  0  0
   11.5260   39.3870   31.4379 C   0  0  0  0  0  0  0  0  0  0  0  0
   12.7492   39.0892   32.0826 O   0  0  0  0  0  0  0  0  0  0  0  0
   10.6123   38.1890   31.6464 C   0  0  0  0  0  0  0  0  0  0  0  0
   12.9374   37.6827   32.0302 C   0  0  0  0  0  0  0  0  0  0  0  0
    9.6151   38.0843   30.6538 O   0  0  0  0  0  0  0  0  0  0  0  0
   11.5794   37.0135   31.7012 C   0  0  0  0  0  0  0  0  0  0  0  0
   13.4906   37.2167   33.3243 N   0  0  0  0  0  0  0  0  0  0  0  0
   11.6217   36.3255   30.4721 O   0  0  0  0  0  0  0  0  0  0  0  0
   14.4763   36.3265   33.5731 C   0  0  0  0  0  0  0  0  0  0  0  0
   13.1181   37.6307   34.5695 C   0  0  0  0  0  0  0  0  0  0  0  0
   15.2065   35.6136   32.6740 N   0  0  0  0  0  0  0  0  0  0  0  0
   14.6736   36.2269   34.9185 C   0  0  0  0  0  0  0  0  0  0  0  0
   13.8229   37.0450   35.5788 N   0  0  0  0  0  0  0  0  0  0  0  0
   16.1639   34.7593   33.1547 C   0  0  0  0  0  0  0  0  0  0  0  0
   15.6519   35.3489   35.4132 C   0  0  0  0  0  0  0  0  0  0  0  0
   16.3795   34.6308   34.5042 N   0  0  0  0  0  0  0  0  0  0  0  0
   15.9006   35.1931   36.8090 N   0  0  0  0  0  0  0  0  0  0  0  0
    9.0405   45.4879   33.7310 H   0  0  0  0  0  0  0  0  0  0  0  0
   11.1216   46.1723   34.5475 H   0  0  0  0  0  0  0  0  0  0  0  0
   10.8138   46.9778   33.1253 H   0  0  0  0  0  0  0  0  0  0  0  0
   10.6424   44.6516   31.2093 H   0  0  0  0  0  0  0  0  0  0  0  0
    9.5725   46.0768   31.3094 H   0  0  0  0  0  0  0  0  0  0  0  0
    7.0918   45.5266   32.3027 H   0  0  0  0  0  0  0  0  0  0  0  0
    9.6395   42.7589   30.1953 H   0  0  0  0  0  0  0  0  0  0  0  0
    5.1395   44.1767   31.7211 H   0  0  0  0  0  0  0  0  0  0  0  0
    7.6784   41.3966   29.6193 H   0  0  0  0  0  0  0  0  0  0  0  0
    3.7248   42.1348   31.7390 H   0  0  0  0  0  0  0  0  0  0  0  0
    3.5022   43.0966   30.2087 H   0  0  0  0  0  0  0  0  0  0  0  0
    3.1822   41.3218   30.2232 H   0  0  0  0  0  0  0  0  0  0  0  0
   11.3807   41.5487   31.4755 H   0  0  0  0  0  0  0  0  0  0  0  0
    9.8239   40.7085   31.7645 H   0  0  0  0  0  0  0  0  0  0  0  0
   11.7285   39.5302   30.3519 H   0  0  0  0  0  0  0  0  0  0  0  0
   10.1136   38.2707   32.6382 H   0  0  0  0  0  0  0  0  0  0  0  0
   13.6727   37.4639   31.2242 H   0  0  0  0  0  0  0  0  0  0  0  0
   10.0535   38.1114   29.7639 H   0  0  0  0  0  0  0  0  0  0  0  0
   11.2648   36.3130   32.5103 H   0  0  0  0  0  0  0  0  0  0  0  0
   12.1553   35.5036   30.6308 H   0  0  0  0  0  0  0  0  0  0  0  0
   12.3361   38.3585   34.7451 H   0  0  0  0  0  0  0  0  0  0  0  0
   16.7574   34.1788   32.4619 H   0  0  0  0  0  0  0  0  0  0  0  0
   15.3533   35.7353   37.5139 H   0  0  0  0  0  0  0  0  0  0  0  0
   16.6366   34.5314   37.1415 H   0  0  0  0  0  0  0  0  0  0  0  0
  1  2  2  0
  1  3  1  0
  3  4  1  0
  4  5  1  0
  6  1  1  0
  7  6  1  0
  6  8  1  0
  8  9  1  0
  9 10  2  0
 11  9  1  0
 10 12  1  0
 13 11  2  0
 12 14  2  0
 14 13  1  0
 14 15  1  0
 15 16  1  0
  4 17  2  0
  4 18  1  0
 19 18  1  0
 19 20  1  0
 20 21  1  0
 20 22  1  0
 21 23  1  0
 22 24  1  0
 22 25  1  0
 25 23  1  0
 23 26  1  0
 25 27  1  0
 28 26  1  0
 29 26  1  0
 30 28  2  0
 28 31  1  0
 32 29  2  0
 33 30  1  0
 31 34  2  0
 31 32  1  0
 35 33  2  0
 35 34  1  0
 34 36  1  0
  6 37  1  1
  7 38  1  0
  7 39  1  0
  8 40  1  0
  8 41  1  0
 10 42  1  0
 11 43  1  0
 12 44  1  0
 13 45  1  0
 16 46  1  0
 16 47  1  0
 16 48  1  0
 19 49  1  0
 19 50  1  0
 20 51  1  0
 22 52  1  0
 23 53  1  0
 24 54  1  0
 25 55  1  0
 27 56  1  0
 29 57  1  0
 33 58  1  0
 36 59  1  0
 36 60  1  0
M  CHG  1   5  -1
M  END
>  <EmbedRMS>  (91) 
0.08841463271172921

$$$$

     RDKit          3D

 60 63  0  0  0  0  0  0  0  0999 V2000
   10.2920   43.7670   33.7922 C   0  0  0  0  0  0  0  0  0  0  0  0
   11.4134   43.5793   34.3496 O   0  0  0  0  0  0  0  0  0  0  0  0
    9.3641   42.7325   33.7094 O   0  0  0  0  0  0  0  0  0  0  0  0
    9.8835   41.2336   34.2869 P   0  0  0  0  0  5  0  0  0  0  0  0
   10.3658   41.4669   35.8769 O   0  0  0  0  0  1  0  0  0  0  0  0
    9.9651   45.1143   33.2346 C   0  0  1  0  0  0  0  0  0  0  0  0
   11.0570   46.0537   33.4985 N   0  0  0  0  0  0  0  0  0  0  0  0
    9.6968   45.0670   31.7156 C   0  0  0  0  0  0  0  0  0  0  0  0
    8.4627   44.2736   31.3572 C   0  0  0  0  0  0  0  0  0  0  0  0
    8.5719   43.0918   30.6079 C   0  0  0  0  0  0  0  0  0  0  0  0
    7.1918   44.7111   31.7631 C   0  0  0  0  0  0  0  0  0  0  0  0
    7.4337   42.3424   30.2993 C   0  0  0  0  0  0  0  0  0  0  0  0
    6.0527   43.9628   31.4515 C   0  0  0  0  0  0  0  0  0  0  0  0
    6.1679   42.7661   30.7187 C   0  0  0  0  0  0  0  0  0  0  0  0
    5.0569   41.9766   30.3870 O   0  0  0  0  0  0  0  0  0  0  0  0
    3.7151   42.2844   30.7504 C   0  0  0  0  0  0  0  0  0  0  0  0
    8.8060   40.1911   34.2097 O   0  0  0  0  0  0  0  0  0  0  0  0
   11.2358   40.7902   33.3706 O   0  0  0  0  0  0  0  0  0  0  0  0
   10.9139   40.6877   31.9984 C   0  0  0  0  0  0  0  0  0  0  0  0
   11.5267   39.3896   31.4385 C   0  0  0  0  0  0  0  0  0  0  0  0
   12.7507   39.0916   32.0845 O   0  0  0  0  0  0  0  0  0  0  0  0
   10.6122   38.1911   31.6453 C   0  0  0  0  0  0  0  0  0  0  0  0
   12.9429   37.6853   32.0296 C   0  0  0  0  0  0  0  0  0  0  0  0
    9.6070   38.0859   30.6602 O   0  0  0  0  0  0  0  0  0  0  0  0
   11.5846   37.0184   31.6877 C   0  0  0  0  0  0  0  0  0  0  0  0
   13.4898   37.2162   33.3250 N   0  0  0  0  0  0  0  0  0  0  0  0
   11.6203   36.3065   30.4689 O   0  0  0  0  0  0  0  0  0  0  0  0
   14.4759   36.3263   33.5739 C   0  0  0  0  0  0  0  0  0  0  0  0
   13.1175   37.6306   34.5699 C   0  0  0  0  0  0  0  0  0  0  0  0
   15.2065   35.6138   32.6746 N   0  0  0  0  0  0  0  0  0  0  0  0
   14.6731   36.2267   34.9191 C   0  0  0  0  0  0  0  0  0  0  0  0
   13.8224   37.0450   35.5792 N   0  0  0  0  0  0  0  0  0  0  0  0
   16.1640   34.7596   33.1551 C   0  0  0  0  0  0  0  0  0  0  0  0
   15.6518   35.3489   35.4136 C   0  0  0  0  0  0  0  0  0  0  0  0
   16.3795   34.6310   34.5046 N   0  0  0  0  0  0  0  0  0  0  0  0
   15.9006   35.1931   36.8094 N   0  0  0  0  0  0  0  0  0  0  0  0
    9.0563   45.4899   33.7531 H   0  0  0  0  0  0  0  0  0  0  0  0
   11.9488   45.7006   33.0786 H   0  0  0  0  0  0  0  0  0  0  0  0
   11.1921   46.1512   34.5318 H   0  0  0  0  0  0  0  0  0  0  0  0
    9.5585   46.1051   31.3418 H   0  0  0  0  0  0  0  0  0  0  0  0
   10.5916   44.6563   31.1968 H   0  0  0  0  0  0  0  0  0  0  0  0
    9.5380   42.7475   30.2632 H   0  0  0  0  0  0  0  0  0  0  0  0
    7.0827   45.6305   32.3245 H   0  0  0  0  0  0  0  0  0  0  0  0
    7.5360   41.4271   29.7302 H   0  0  0  0  0  0  0  0  0  0  0  0
    5.0891   44.3227   31.7850 H   0  0  0  0  0  0  0  0  0  0  0  0
    3.6183   42.3227   31.8561 H   0  0  0  0  0  0  0  0  0  0  0  0
    3.4124   43.2560   30.3060 H   0  0  0  0  0  0  0  0  0  0  0  0
    3.0434   41.4916   30.3623 H   0  0  0  0  0  0  0  0  0  0  0  0
    9.8234   40.7086   31.7649 H   0  0  0  0  0  0  0  0  0  0  0  0
   11.3785   41.5514   31.4767 H   0  0  0  0  0  0  0  0  0  0  0  0
   11.7312   39.5352   30.3533 H   0  0  0  0  0  0  0  0  0  0  0  0
   10.1211   38.2669   32.6413 H   0  0  0  0  0  0  0  0  0  0  0  0
   13.6883   37.4711   31.2320 H   0  0  0  0  0  0  0  0  0  0  0  0
   10.0253   38.1781   29.7657 H   0  0  0  0  0  0  0  0  0  0  0  0
   11.2798   36.3119   32.4911 H   0  0  0  0  0  0  0  0  0  0  0  0
   11.9866   36.9107   29.7711 H   0  0  0  0  0  0  0  0  0  0  0  0
   12.3365   38.3595   34.7453 H   0  0  0  0  0  0  0  0  0  0  0  0
   16.7577   34.1794   32.4622 H   0  0  0  0  0  0  0  0  0  0  0  0
   16.6368   34.5316   37.1418 H   0  0  0  0  0  0  0  0  0  0  0  0
   15.3532   35.7351   37.5143 H   0  0  0  0  0  0  0  0  0  0  0  0
  1  2  2  0
  1  3  1  0
  3  4  1  0
  4  5  1  0
  6  1  1  0
  7  6  1  0
  6  8  1  0
  8  9  1  0
  9 10  2  0
 11  9  1  0
 10 12  1  0
 13 11  2  0
 12 14  2  0
 14 13  1  0
 14 15  1  0
 15 16  1  0
  4 17  2  0
  4 18  1  0
 19 18  1  0
 19 20  1  0
 20 21  1  0
 20 22  1  0
 21 23  1  0
 22 24  1  0
 22 25  1  0
 25 23  1  0
 23 26  1  0
 25 27  1  0
 28 26  1  0
 29 26  1  0
 30 28  2  0
 28 31  1  0
 32 29  2  0
 33 30  1  0
 31 34  2  0
 31 32  1  0
 35 33  2  0
 35 34  1  0
 34 36  1  0
  6 37  1  1
  7 38  1  0
  7 39  1  0
  8 40  1  0
  8 41  1  0
 10 42  1  0
 11 43  1  0
 12 44  1  0
 13 45  1  0
 16 46  1  0
 16 47  1  0
 16 48  1  0
 19 49  1  0
 19 50  1  0
 20 51  1  0
 22 52  1  0
 23 53  1  0
 24 54  1  0
 25 55  1  0
 27 56  1  0
 29 57  1  0
 33 58  1  0
 36 59  1  0
 36 60  1  0
M  CHG  1   5  -1
M  END
>  <EmbedRMS>  (92) 
0.08799652198746624

$$$$

     RDKit          3D

 60 63  0  0  0  0  0  0  0  0999 V2000
   10.2891   43.7708   33.7903 C   0  0  0  0  0  0  0  0  0  0  0  0
   11.4142   43.5855   34.3415 O   0  0  0  0  0  0  0  0  0  0  0  0
    9.3633   42.7337   33.7099 O   0  0  0  0  0  0  0  0  0  0  0  0
    9.8846   41.2349   34.2866 P   0  0  0  0  0  5  0  0  0  0  0  0
   10.3672   41.4682   35.8765 O   0  0  0  0  0  1  0  0  0  0  0  0
    9.9601   45.1140   33.2287 C   0  0  1  0  0  0  0  0  0  0  0  0
   11.0607   46.0372   33.5109 N   0  0  0  0  0  0  0  0  0  0  0  0
    9.7253   45.0481   31.7020 C   0  0  0  0  0  0  0  0  0  0  0  0
    8.5154   44.2274   31.3213 C   0  0  0  0  0  0  0  0  0  0  0  0
    7.2299   44.6218   31.7263 C   0  0  0  0  0  0  0  0  0  0  0  0
    8.6610   43.0678   30.5442 C   0  0  0  0  0  0  0  0  0  0  0  0
    6.1139   43.8493   31.3911 C   0  0  0  0  0  0  0  0  0  0  0  0
    7.5459   42.2944   30.2118 C   0  0  0  0  0  0  0  0  0  0  0  0
    6.2665   42.6727   30.6332 C   0  0  0  0  0  0  0  0  0  0  0  0
    5.1800   41.8599   30.2778 O   0  0  0  0  0  0  0  0  0  0  0  0
    3.8283   42.1211   30.6412 C   0  0  0  0  0  0  0  0  0  0  0  0
    8.8071   40.1921   34.2102 O   0  0  0  0  0  0  0  0  0  0  0  0
   11.2365   40.7905   33.3700 O   0  0  0  0  0  0  0  0  0  0  0  0
   10.9144   40.6864   31.9977 C   0  0  0  0  0  0  0  0  0  0  0  0
   11.5260   39.3870   31.4379 C   0  0  0  0  0  0  0  0  0  0  0  0
   12.7492   39.0892   32.0826 O   0  0  0  0  0  0  0  0  0  0  0  0
   10.6123   38.1890   31.6464 C   0  0  0  0  0  0  0  0  0  0  0  0
   12.9374   37.6827   32.0302 C   0  0  0  0  0  0  0  0  0  0  0  0
    9.6151   38.0843   30.6538 O   0  0  0  0  0  0  0  0  0  0  0  0
   11.5794   37.0135   31.7012 C   0  0  0  0  0  0  0  0  0  0  0  0
   13.4906   37.2168   33.3243 N   0  0  0  0  0  0  0  0  0  0  0  0
   11.6217   36.3255   30.4721 O   0  0  0  0  0  0  0  0  0  0  0  0
   14.4763   36.3265   33.5731 C   0  0  0  0  0  0  0  0  0  0  0  0
   13.1181   37.6307   34.5695 C   0  0  0  0  0  0  0  0  0  0  0  0
   15.2066   35.6136   32.6740 N   0  0  0  0  0  0  0  0  0  0  0  0
   14.6736   36.2269   34.9185 C   0  0  0  0  0  0  0  0  0  0  0  0
   13.8229   37.0450   35.5788 N   0  0  0  0  0  0  0  0  0  0  0  0
   16.1639   34.7593   33.1547 C   0  0  0  0  0  0  0  0  0  0  0  0
   15.6519   35.3489   35.4132 C   0  0  0  0  0  0  0  0  0  0  0  0
   16.3795   34.6308   34.5042 N   0  0  0  0  0  0  0  0  0  0  0  0
   15.9006   35.1931   36.8090 N   0  0  0  0  0  0  0  0  0  0  0  0
    9.0407   45.4881   33.7318 H   0  0  0  0  0  0  0  0  0  0  0  0
   10.8138   46.9778   33.1251 H   0  0  0  0  0  0  0  0  0  0  0  0
   11.1222   46.1723   34.5472 H   0  0  0  0  0  0  0  0  0  0  0  0
    9.5709   46.0770   31.3100 H   0  0  0  0  0  0  0  0  0  0  0  0
   10.6410   44.6520   31.2090 H   0  0  0  0  0  0  0  0  0  0  0  0
    7.0910   45.5263   32.3049 H   0  0  0  0  0  0  0  0  0  0  0  0
    9.6378   42.7589   30.1960 H   0  0  0  0  0  0  0  0  0  0  0  0
    5.1386   44.1754   31.7257 H   0  0  0  0  0  0  0  0  0  0  0  0
    7.6767   41.3956   29.6224 H   0  0  0  0  0  0  0  0  0  0  0  0
    3.1813   41.3184   30.2322 H   0  0  0  0  0  0  0  0  0  0  0  0
    3.7256   42.1322   31.7469 H   0  0  0  0  0  0  0  0  0  0  0  0
    3.5000   43.0934   30.2167 H   0  0  0  0  0  0  0  0  0  0  0  0
    9.8239   40.7084   31.7646 H   0  0  0  0  0  0  0  0  0  0  0  0
   11.3806   41.5487   31.4755 H   0  0  0  0  0  0  0  0  0  0  0  0
   11.7285   39.5302   30.3519 H   0  0  0  0  0  0  0  0  0  0  0  0
   10.1136   38.2707   32.6381 H   0  0  0  0  0  0  0  0  0  0  0  0
   13.6727   37.4639   31.2242 H   0  0  0  0  0  0  0  0  0  0  0  0
   10.0535   38.1114   29.7639 H   0  0  0  0  0  0  0  0  0  0  0  0
   11.2648   36.3130   32.5103 H   0  0  0  0  0  0  0  0  0  0  0  0
   12.1553   35.5036   30.6308 H   0  0  0  0  0  0  0  0  0  0  0  0
   12.3362   38.3585   34.7451 H   0  0  0  0  0  0  0  0  0  0  0  0
   16.7574   34.1788   32.4619 H   0  0  0  0  0  0  0  0  0  0  0  0
   15.3533   35.7353   37.5139 H   0  0  0  0  0  0  0  0  0  0  0  0
   16.6366   34.5314   37.1415 H   0  0  0  0  0  0  0  0  0  0  0  0
  1  2  2  0
  1  3  1  0
  3  4  1  0
  4  5  1  0
  6  1  1  0
  7  6  1  0
  6  8  1  0
  8  9  1  0
  9 10  2  0
 11  9  1  0
 10 12  1  0
 13 11  2  0
 12 14  2  0
 14 13  1  0
 14 15  1  0
 15 16  1  0
  4 17  2  0
  4 18  1  0
 19 18  1  0
 19 20  1  0
 20 21  1  0
 20 22  1  0
 21 23  1  0
 22 24  1  0
 22 25  1  0
 25 23  1  0
 23 26  1  0
 25 27  1  0
 28 26  1  0
 29 26  1  0
 30 28  2  0
 28 31  1  0
 32 29  2  0
 33 30  1  0
 31 34  2  0
 31 32  1  0
 35 33  2  0
 35 34  1  0
 34 36  1  0
  6 37  1  1
  7 38  1  0
  7 39  1  0
  8 40  1  0
  8 41  1  0
 10 42  1  0
 11 43  1  0
 12 44  1  0
 13 45  1  0
 16 46  1  0
 16 47  1  0
 16 48  1  0
 19 49  1  0
 19 50  1  0
 20 51  1  0
 22 52  1  0
 23 53  1  0
 24 54  1  0
 25 55  1  0
 27 56  1  0
 29 57  1  0
 33 58  1  0
 36 59  1  0
 36 60  1  0
M  CHG  1   5  -1
M  END
>  <EmbedRMS>  (93) 
0.08841320069716542

$$$$

     RDKit          3D

 60 63  0  0  0  0  0  0  0  0999 V2000
   10.2898   43.7708   33.7888 C   0  0  0  0  0  0  0  0  0  0  0  0
   11.4118   43.5888   34.3472 O   0  0  0  0  0  0  0  0  0  0  0  0
    9.3644   42.7334   33.7089 O   0  0  0  0  0  0  0  0  0  0  0  0
    9.8857   41.2348   34.2857 P   0  0  0  0  0  5  0  0  0  0  0  0
   10.3683   41.4680   35.8756 O   0  0  0  0  0  1  0  0  0  0  0  0
    9.9591   45.1132   33.2302 C   0  0  1  0  0  0  0  0  0  0  0  0
   11.0622   46.0348   33.5085 N   0  0  0  0  0  0  0  0  0  0  0  0
    9.6739   45.0618   31.7095 C   0  0  0  0  0  0  0  0  0  0  0  0
    8.4465   44.2519   31.3660 C   0  0  0  0  0  0  0  0  0  0  0  0
    7.1753   44.6697   31.7904 C   0  0  0  0  0  0  0  0  0  0  0  0
    8.5634   43.0705   30.6172 C   0  0  0  0  0  0  0  0  0  0  0  0
    6.0454   43.9002   31.4986 C   0  0  0  0  0  0  0  0  0  0  0  0
    7.4344   42.2991   30.3293 C   0  0  0  0  0  0  0  0  0  0  0  0
    6.1633   42.7086   30.7741 C   0  0  0  0  0  0  0  0  0  0  0  0
    5.0013   41.9659   30.5173 O   0  0  0  0  0  0  0  0  0  0  0  0
    4.9773   40.7327   29.8059 C   0  0  0  0  0  0  0  0  0  0  0  0
    8.8077   40.1924   34.2097 O   0  0  0  0  0  0  0  0  0  0  0  0
   11.2370   40.7913   33.3673 O   0  0  0  0  0  0  0  0  0  0  0  0
   10.9125   40.6829   31.9955 C   0  0  0  0  0  0  0  0  0  0  0  0
   11.5164   39.3771   31.4405 C   0  0  0  0  0  0  0  0  0  0  0  0
   12.7471   39.0854   32.0746 O   0  0  0  0  0  0  0  0  0  0  0  0
   10.6046   38.1862   31.6671 C   0  0  0  0  0  0  0  0  0  0  0  0
   12.9345   37.6791   32.0283 C   0  0  0  0  0  0  0  0  0  0  0  0
    9.6379   38.0921   30.6486 O   0  0  0  0  0  0  0  0  0  0  0  0
   11.5762   37.0127   31.7054 C   0  0  0  0  0  0  0  0  0  0  0  0
   13.4909   37.2175   33.3234 N   0  0  0  0  0  0  0  0  0  0  0  0
   11.6235   36.3372   30.4681 O   0  0  0  0  0  0  0  0  0  0  0  0
   14.4765   36.3271   33.5727 C   0  0  0  0  0  0  0  0  0  0  0  0
   13.1181   37.6314   34.5686 C   0  0  0  0  0  0  0  0  0  0  0  0
   15.2066   35.6137   32.6739 N   0  0  0  0  0  0  0  0  0  0  0  0
   14.6736   36.2275   34.9182 C   0  0  0  0  0  0  0  0  0  0  0  0
   13.8227   37.0457   35.5782 N   0  0  0  0  0  0  0  0  0  0  0  0
   16.1638   34.7593   33.1548 C   0  0  0  0  0  0  0  0  0  0  0  0
   15.6517   35.3492   35.4131 C   0  0  0  0  0  0  0  0  0  0  0  0
   16.3793   34.6309   34.5043 N   0  0  0  0  0  0  0  0  0  0  0  0
   15.9003   35.1934   36.8090 N   0  0  0  0  0  0  0  0  0  0  0  0
    9.0562   45.4847   33.7623 H   0  0  0  0  0  0  0  0  0  0  0  0
   10.7575   47.0048   33.2618 H   0  0  0  0  0  0  0  0  0  0  0  0
   11.8795   45.8023   32.8968 H   0  0  0  0  0  0  0  0  0  0  0  0
   10.5668   44.6603   31.1806 H   0  0  0  0  0  0  0  0  0  0  0  0
    9.5174   46.0964   31.3339 H   0  0  0  0  0  0  0  0  0  0  0  0
    7.0591   45.5880   32.3522 H   0  0  0  0  0  0  0  0  0  0  0  0
    9.5302   42.7416   30.2590 H   0  0  0  0  0  0  0  0  0  0  0  0
    5.0724   44.2299   31.8403 H   0  0  0  0  0  0  0  0  0  0  0  0
    7.5612   41.3875   29.7614 H   0  0  0  0  0  0  0  0  0  0  0  0
    5.5977   39.9764   30.3318 H   0  0  0  0  0  0  0  0  0  0  0  0
    3.9327   40.3631   29.7560 H   0  0  0  0  0  0  0  0  0  0  0  0
    5.3516   40.8816   28.7710 H   0  0  0  0  0  0  0  0  0  0  0  0
   11.3814   41.5405   31.4678 H   0  0  0  0  0  0  0  0  0  0  0  0
    9.8217   40.7090   31.7640 H   0  0  0  0  0  0  0  0  0  0  0  0
   11.6980   39.5025   30.3480 H   0  0  0  0  0  0  0  0  0  0  0  0
   10.1093   38.2758   32.6630 H   0  0  0  0  0  0  0  0  0  0  0  0
   13.6673   37.4548   31.2214 H   0  0  0  0  0  0  0  0  0  0  0  0
    8.9751   37.4196   30.9545 H   0  0  0  0  0  0  0  0  0  0  0  0
   11.2862   36.3036   32.5172 H   0  0  0  0  0  0  0  0  0  0  0  0
   10.8681   35.6930   30.4646 H   0  0  0  0  0  0  0  0  0  0  0  0
   12.3355   38.3586   34.7440 H   0  0  0  0  0  0  0  0  0  0  0  0
   16.7572   34.1786   32.4621 H   0  0  0  0  0  0  0  0  0  0  0  0
   15.3530   35.7357   37.5138 H   0  0  0  0  0  0  0  0  0  0  0  0
   16.6361   34.5315   37.1415 H   0  0  0  0  0  0  0  0  0  0  0  0
  1  2  2  0
  1  3  1  0
  3  4  1  0
  4  5  1  0
  6  1  1  0
  7  6  1  0
  6  8  1  0
  8  9  1  0
  9 10  2  0
 11  9  1  0
 10 12  1  0
 13 11  2  0
 12 14  2  0
 14 13  1  0
 14 15  1  0
 15 16  1  0
  4 17  2  0
  4 18  1  0
 19 18  1  0
 19 20  1  0
 20 21  1  0
 20 22  1  0
 21 23  1  0
 22 24  1  0
 22 25  1  0
 25 23  1  0
 23 26  1  0
 25 27  1  0
 28 26  1  0
 29 26  1  0
 30 28  2  0
 28 31  1  0
 32 29  2  0
 33 30  1  0
 31 34  2  0
 31 32  1  0
 35 33  2  0
 35 34  1  0
 34 36  1  0
  6 37  1  1
  7 38  1  0
  7 39  1  0
  8 40  1  0
  8 41  1  0
 10 42  1  0
 11 43  1  0
 12 44  1  0
 13 45  1  0
 16 46  1  0
 16 47  1  0
 16 48  1  0
 19 49  1  0
 19 50  1  0
 20 51  1  0
 22 52  1  0
 23 53  1  0
 24 54  1  0
 25 55  1  0
 27 56  1  0
 29 57  1  0
 33 58  1  0
 36 59  1  0
 36 60  1  0
M  CHG  1   5  -1
M  END
>  <EmbedRMS>  (94) 
0.08932219861353244

$$$$

     RDKit          3D

 60 63  0  0  0  0  0  0  0  0999 V2000
   10.2940   43.7721   33.7964 C   0  0  0  0  0  0  0  0  0  0  0  0
   11.4139   43.5898   34.3581 O   0  0  0  0  0  0  0  0  0  0  0  0
    9.3670   42.7360   33.7088 O   0  0  0  0  0  0  0  0  0  0  0  0
    9.8870   41.2361   34.2839 P   0  0  0  0  0  5  0  0  0  0  0  0
   10.3707   41.4671   35.8740 O   0  0  0  0  0  1  0  0  0  0  0  0
    9.9765   45.1031   33.2091 C   0  0  1  0  0  0  0  0  0  0  0  0
   11.0437   46.0546   33.5257 N   0  0  0  0  0  0  0  0  0  0  0  0
    9.7527   45.0001   31.6766 C   0  0  0  0  0  0  0  0  0  0  0  0
   11.0006   45.2126   30.8412 C   0  0  0  0  0  0  0  0  0  0  0  0
   12.1374   44.4067   31.0176 C   0  0  0  0  0  0  0  0  0  0  0  0
   11.0224   46.2094   29.8510 C   0  0  0  0  0  0  0  0  0  0  0  0
   13.2745   44.5974   30.2275 C   0  0  0  0  0  0  0  0  0  0  0  0
   12.1597   46.3999   29.0612 C   0  0  0  0  0  0  0  0  0  0  0  0
   13.2927   45.5994   29.2399 C   0  0  0  0  0  0  0  0  0  0  0  0
   14.4086   45.8299   28.4217 O   0  0  0  0  0  0  0  0  0  0  0  0
   15.6243   45.0923   28.4944 C   0  0  0  0  0  0  0  0  0  0  0  0
    8.8089   40.1934   34.2084 O   0  0  0  0  0  0  0  0  0  0  0  0
   11.2367   40.7962   33.3611 O   0  0  0  0  0  0  0  0  0  0  0  0
   10.9050   40.6775   31.9909 C   0  0  0  0  0  0  0  0  0  0  0  0
   11.5135   39.3733   31.4398 C   0  0  0  0  0  0  0  0  0  0  0  0
   12.7444   39.0848   32.0752 O   0  0  0  0  0  0  0  0  0  0  0  0
   10.6038   38.1825   31.6674 C   0  0  0  0  0  0  0  0  0  0  0  0
   12.9343   37.6788   32.0285 C   0  0  0  0  0  0  0  0  0  0  0  0
    9.6370   38.0880   30.6492 O   0  0  0  0  0  0  0  0  0  0  0  0
   11.5768   37.0106   31.7054 C   0  0  0  0  0  0  0  0  0  0  0  0
   13.4910   37.2177   33.3235 N   0  0  0  0  0  0  0  0  0  0  0  0
   11.6247   36.3361   30.4676 O   0  0  0  0  0  0  0  0  0  0  0  0
   14.4765   36.3271   33.5728 C   0  0  0  0  0  0  0  0  0  0  0  0
   13.1183   37.6315   34.5687 C   0  0  0  0  0  0  0  0  0  0  0  0
   15.2066   35.6137   32.6739 N   0  0  0  0  0  0  0  0  0  0  0  0
   14.6736   36.2276   34.9182 C   0  0  0  0  0  0  0  0  0  0  0  0
   13.8228   37.0457   35.5782 N   0  0  0  0  0  0  0  0  0  0  0  0
   16.1638   34.7592   33.1548 C   0  0  0  0  0  0  0  0  0  0  0  0
   15.6517   35.3492   35.4131 C   0  0  0  0  0  0  0  0  0  0  0  0
   16.3793   34.6309   34.5043 N   0  0  0  0  0  0  0  0  0  0  0  0
   15.9003   35.1934   36.8090 N   0  0  0  0  0  0  0  0  0  0  0  0
    9.0282   45.4509   33.6783 H   0  0  0  0  0  0  0  0  0  0  0  0
   11.0583   46.2029   34.5617 H   0  0  0  0  0  0  0  0  0  0  0  0
   10.7870   46.9815   33.1138 H   0  0  0  0  0  0  0  0  0  0  0  0
    9.3054   44.0187   31.4058 H   0  0  0  0  0  0  0  0  0  0  0  0
    8.9908   45.7619   31.4001 H   0  0  0  0  0  0  0  0  0  0  0  0
   12.1557   43.6398   31.7756 H   0  0  0  0  0  0  0  0  0  0  0  0
   10.1589   46.8419   29.6870 H   0  0  0  0  0  0  0  0  0  0  0  0
   14.1334   43.9618   30.3942 H   0  0  0  0  0  0  0  0  0  0  0  0
   12.1600   47.1737   28.3038 H   0  0  0  0  0  0  0  0  0  0  0  0
   15.4331   44.0192   28.2823 H   0  0  0  0  0  0  0  0  0  0  0  0
   16.3320   45.4840   27.7353 H   0  0  0  0  0  0  0  0  0  0  0  0
   16.0815   45.2079   29.4998 H   0  0  0  0  0  0  0  0  0  0  0  0
    9.8133   40.7064   31.7615 H   0  0  0  0  0  0  0  0  0  0  0  0
   11.3661   41.5261   31.4494 H   0  0  0  0  0  0  0  0  0  0  0  0
   11.6962   39.4963   30.3470 H   0  0  0  0  0  0  0  0  0  0  0  0
   10.1086   38.2716   32.6635 H   0  0  0  0  0  0  0  0  0  0  0  0
   13.6675   37.4559   31.2216 H   0  0  0  0  0  0  0  0  0  0  0  0
    8.9779   37.4109   30.9527 H   0  0  0  0  0  0  0  0  0  0  0  0
   11.2879   36.3007   32.5168 H   0  0  0  0  0  0  0  0  0  0  0  0
   10.8714   35.6895   30.4646 H   0  0  0  0  0  0  0  0  0  0  0  0
   12.3356   38.3586   34.7441 H   0  0  0  0  0  0  0  0  0  0  0  0
   16.7572   34.1786   32.4620 H   0  0  0  0  0  0  0  0  0  0  0  0
   16.6361   34.5315   37.1415 H   0  0  0  0  0  0  0  0  0  0  0  0
   15.3531   35.7357   37.5138 H   0  0  0  0  0  0  0  0  0  0  0  0
  1  2  2  0
  1  3  1  0
  3  4  1  0
  4  5  1  0
  6  1  1  0
  7  6  1  0
  6  8  1  0
  8  9  1  0
  9 10  2  0
 11  9  1  0
 10 12  1  0
 13 11  2  0
 12 14  2  0
 14 13  1  0
 14 15  1  0
 15 16  1  0
  4 17  2  0
  4 18  1  0
 19 18  1  0
 19 20  1  0
 20 21  1  0
 20 22  1  0
 21 23  1  0
 22 24  1  0
 22 25  1  0
 25 23  1  0
 23 26  1  0
 25 27  1  0
 28 26  1  0
 29 26  1  0
 30 28  2  0
 28 31  1  0
 32 29  2  0
 33 30  1  0
 31 34  2  0
 31 32  1  0
 35 33  2  0
 35 34  1  0
 34 36  1  0
  6 37  1  1
  7 38  1  0
  7 39  1  0
  8 40  1  0
  8 41  1  0
 10 42  1  0
 11 43  1  0
 12 44  1  0
 13 45  1  0
 16 46  1  0
 16 47  1  0
 16 48  1  0
 19 49  1  0
 19 50  1  0
 20 51  1  0
 22 52  1  0
 23 53  1  0
 24 54  1  0
 25 55  1  0
 27 56  1  0
 29 57  1  0
 33 58  1  0
 36 59  1  0
 36 60  1  0
M  CHG  1   5  -1
M  END
>  <EmbedRMS>  (95) 
0.08983818677557132

$$$$

     RDKit          3D

 60 63  0  0  0  0  0  0  0  0999 V2000
   10.2876   43.7723   33.7999 C   0  0  0  0  0  0  0  0  0  0  0  0
   11.4102   43.5905   34.3570 O   0  0  0  0  0  0  0  0  0  0  0  0
    9.3642   42.7338   33.7094 O   0  0  0  0  0  0  0  0  0  0  0  0
    9.8855   41.2350   34.2863 P   0  0  0  0  0  5  0  0  0  0  0  0
   10.3672   41.4675   35.8766 O   0  0  0  0  0  1  0  0  0  0  0  0
    9.9622   45.1043   33.2249 C   0  0  1  0  0  0  0  0  0  0  0  0
   11.0639   46.0310   33.4992 N   0  0  0  0  0  0  0  0  0  0  0  0
    9.6872   44.9763   31.7101 C   0  0  0  0  0  0  0  0  0  0  0  0
    9.2393   46.2845   31.1106 C   0  0  0  0  0  0  0  0  0  0  0  0
   10.1489   47.0998   30.4196 C   0  0  0  0  0  0  0  0  0  0  0  0
    7.9143   46.7176   31.2718 C   0  0  0  0  0  0  0  0  0  0  0  0
    9.7351   48.3241   29.8874 C   0  0  0  0  0  0  0  0  0  0  0  0
    7.5007   47.9422   30.7391 C   0  0  0  0  0  0  0  0  0  0  0  0
    8.4125   48.7562   30.0399 C   0  0  0  0  0  0  0  0  0  0  0  0
    8.0472   49.9927   29.4873 O   0  0  0  0  0  0  0  0  0  0  0  0
    6.7412   50.5542   29.5672 C   0  0  0  0  0  0  0  0  0  0  0  0
    8.8086   40.1915   34.2090 O   0  0  0  0  0  0  0  0  0  0  0  0
   11.2379   40.7936   33.3693 O   0  0  0  0  0  0  0  0  0  0  0  0
   10.9175   40.6917   31.9961 C   0  0  0  0  0  0  0  0  0  0  0  0
   11.5169   39.3831   31.4416 C   0  0  0  0  0  0  0  0  0  0  0  0
   12.7489   39.0899   32.0761 O   0  0  0  0  0  0  0  0  0  0  0  0
   10.6033   38.1904   31.6659 C   0  0  0  0  0  0  0  0  0  0  0  0
   12.9399   37.6840   32.0277 C   0  0  0  0  0  0  0  0  0  0  0  0
    9.6375   38.0788   30.6473 O   0  0  0  0  0  0  0  0  0  0  0  0
   11.5802   37.0208   31.6937 C   0  0  0  0  0  0  0  0  0  0  0  0
   13.4901   37.2180   33.3237 N   0  0  0  0  0  0  0  0  0  0  0  0
   11.6118   36.3196   30.4681 O   0  0  0  0  0  0  0  0  0  0  0  0
   14.4758   36.3273   33.5730 C   0  0  0  0  0  0  0  0  0  0  0  0
   13.1176   37.6319   34.5688 C   0  0  0  0  0  0  0  0  0  0  0  0
   15.2063   35.6143   32.6741 N   0  0  0  0  0  0  0  0  0  0  0  0
   14.6729   36.2274   34.9184 C   0  0  0  0  0  0  0  0  0  0  0  0
   13.8221   37.0458   35.5783 N   0  0  0  0  0  0  0  0  0  0  0  0
   16.1636   34.7597   33.1548 C   0  0  0  0  0  0  0  0  0  0  0  0
   15.6513   35.3493   35.4132 C   0  0  0  0  0  0  0  0  0  0  0  0
   16.3790   34.6312   34.5043 N   0  0  0  0  0  0  0  0  0  0  0  0
   15.9001   35.1935   36.8090 N   0  0  0  0  0  0  0  0  0  0  0  0
    9.0443   45.4724   33.7349 H   0  0  0  0  0  0  0  0  0  0  0  0
   11.8656   45.8304   32.8567 H   0  0  0  0  0  0  0  0  0  0  0  0
   10.7421   47.0072   33.3068 H   0  0  0  0  0  0  0  0  0  0  0  0
   10.5968   44.6026   31.1889 H   0  0  0  0  0  0  0  0  0  0  0  0
    8.8901   44.2194   31.5382 H   0  0  0  0  0  0  0  0  0  0  0  0
   11.1793   46.7899   30.2961 H   0  0  0  0  0  0  0  0  0  0  0  0
    7.2019   46.1063   31.8123 H   0  0  0  0  0  0  0  0  0  0  0  0
   10.4469   48.9426   29.3553 H   0  0  0  0  0  0  0  0  0  0  0  0
    6.4726   48.2472   30.8782 H   0  0  0  0  0  0  0  0  0  0  0  0
    6.0065   49.8841   29.0728 H   0  0  0  0  0  0  0  0  0  0  0  0
    6.4587   50.7143   30.6292 H   0  0  0  0  0  0  0  0  0  0  0  0
    6.7352   51.5336   29.0465 H   0  0  0  0  0  0  0  0  0  0  0  0
   11.3967   41.5469   31.4733 H   0  0  0  0  0  0  0  0  0  0  0  0
    9.8293   40.7403   31.7573 H   0  0  0  0  0  0  0  0  0  0  0  0
   11.6985   39.5099   30.3493 H   0  0  0  0  0  0  0  0  0  0  0  0
   10.1126   38.2592   32.6663 H   0  0  0  0  0  0  0  0  0  0  0  0
   13.6798   37.4637   31.2266 H   0  0  0  0  0  0  0  0  0  0  0  0
    8.8955   38.6917   30.8884 H   0  0  0  0  0  0  0  0  0  0  0  0
   11.2830   36.3065   32.4930 H   0  0  0  0  0  0  0  0  0  0  0  0
   11.8858   36.9592   29.7594 H   0  0  0  0  0  0  0  0  0  0  0  0
   12.3361   38.3602   34.7443 H   0  0  0  0  0  0  0  0  0  0  0  0
   16.7571   34.1794   32.4620 H   0  0  0  0  0  0  0  0  0  0  0  0
   15.3528   35.7357   37.5139 H   0  0  0  0  0  0  0  0  0  0  0  0
   16.6362   34.5318   37.1415 H   0  0  0  0  0  0  0  0  0  0  0  0
  1  2  2  0
  1  3  1  0
  3  4  1  0
  4  5  1  0
  6  1  1  0
  7  6  1  0
  6  8  1  0
  8  9  1  0
  9 10  2  0
 11  9  1  0
 10 12  1  0
 13 11  2  0
 12 14  2  0
 14 13  1  0
 14 15  1  0
 15 16  1  0
  4 17  2  0
  4 18  1  0
 19 18  1  0
 19 20  1  0
 20 21  1  0
 20 22  1  0
 21 23  1  0
 22 24  1  0
 22 25  1  0
 25 23  1  0
 23 26  1  0
 25 27  1  0
 28 26  1  0
 29 26  1  0
 30 28  2  0
 28 31  1  0
 32 29  2  0
 33 30  1  0
 31 34  2  0
 31 32  1  0
 35 33  2  0
 35 34  1  0
 34 36  1  0
  6 37  1  1
  7 38  1  0
  7 39  1  0
  8 40  1  0
  8 41  1  0
 10 42  1  0
 11 43  1  0
 12 44  1  0
 13 45  1  0
 16 46  1  0
 16 47  1  0
 16 48  1  0
 19 49  1  0
 19 50  1  0
 20 51  1  0
 22 52  1  0
 23 53  1  0
 24 54  1  0
 25 55  1  0
 27 56  1  0
 29 57  1  0
 33 58  1  0
 36 59  1  0
 36 60  1  0
M  CHG  1   5  -1
M  END
>  <EmbedRMS>  (96) 
0.08793879207235282

$$$$

     RDKit          3D

 60 63  0  0  0  0  0  0  0  0999 V2000
   10.2871   43.7692   33.7895 C   0  0  0  0  0  0  0  0  0  0  0  0
   11.4140   43.5805   34.3360 O   0  0  0  0  0  0  0  0  0  0  0  0
    9.3643   42.7312   33.6953 O   0  0  0  0  0  0  0  0  0  0  0  0
    9.8823   41.2338   34.2826 P   0  0  0  0  0  5  0  0  0  0  0  0
   10.3620   41.4720   35.8732 O   0  0  0  0  0  1  0  0  0  0  0  0
    9.9371   45.1298   33.2924 C   0  0  1  0  0  0  0  0  0  0  0  0
   11.0773   46.0315   33.4641 N   0  0  0  0  0  0  0  0  0  0  0  0
    9.4241   45.1277   31.8317 C   0  0  0  0  0  0  0  0  0  0  0  0
   10.2825   44.3617   30.8482 C   0  0  0  0  0  0  0  0  0  0  0  0
    9.7209   43.3140   30.0983 C   0  0  0  0  0  0  0  0  0  0  0  0
   11.6138   44.7361   30.6024 C   0  0  0  0  0  0  0  0  0  0  0  0
   10.4841   42.6363   29.1436 C   0  0  0  0  0  0  0  0  0  0  0  0
   12.3817   44.0466   29.6588 C   0  0  0  0  0  0  0  0  0  0  0  0
   11.8204   42.9856   28.9236 C   0  0  0  0  0  0  0  0  0  0  0  0
   12.5512   42.2587   27.9723 O   0  0  0  0  0  0  0  0  0  0  0  0
   13.9219   42.4894   27.6646 C   0  0  0  0  0  0  0  0  0  0  0  0
    8.8045   40.1915   34.2086 O   0  0  0  0  0  0  0  0  0  0  0  0
   11.2364   40.7804   33.3754 O   0  0  0  0  0  0  0  0  0  0  0  0
   10.9267   40.6863   32.0003 C   0  0  0  0  0  0  0  0  0  0  0  0
   11.5194   39.3783   31.4412 C   0  0  0  0  0  0  0  0  0  0  0  0
   12.7506   39.0839   32.0723 O   0  0  0  0  0  0  0  0  0  0  0  0
   10.6053   38.1890   31.6677 C   0  0  0  0  0  0  0  0  0  0  0  0
   12.9349   37.6776   32.0278 C   0  0  0  0  0  0  0  0  0  0  0  0
    9.6388   38.0953   30.6490 O   0  0  0  0  0  0  0  0  0  0  0  0
   11.5754   37.0137   31.7059 C   0  0  0  0  0  0  0  0  0  0  0  0
   13.4908   37.2169   33.3232 N   0  0  0  0  0  0  0  0  0  0  0  0
   11.6218   36.3377   30.4687 O   0  0  0  0  0  0  0  0  0  0  0  0
   14.4766   36.3268   33.5728 C   0  0  0  0  0  0  0  0  0  0  0  0
   13.1181   37.6312   34.5683 C   0  0  0  0  0  0  0  0  0  0  0  0
   15.2067   35.6134   32.6740 N   0  0  0  0  0  0  0  0  0  0  0  0
   14.6736   36.2275   34.9182 C   0  0  0  0  0  0  0  0  0  0  0  0
   13.8227   37.0457   35.5780 N   0  0  0  0  0  0  0  0  0  0  0  0
   16.1640   34.7591   33.1549 C   0  0  0  0  0  0  0  0  0  0  0  0
   15.6518   35.3492   35.4132 C   0  0  0  0  0  0  0  0  0  0  0  0
   16.3794   34.6309   34.5044 N   0  0  0  0  0  0  0  0  0  0  0  0
   15.9003   35.1934   36.8091 N   0  0  0  0  0  0  0  0  0  0  0  0
    9.1038   45.5034   33.9301 H   0  0  0  0  0  0  0  0  0  0  0  0
   11.2566   46.1520   34.4884 H   0  0  0  0  0  0  0  0  0  0  0  0
   10.8071   46.9808   33.1177 H   0  0  0  0  0  0  0  0  0  0  0  0
    8.3936   44.7084   31.8368 H   0  0  0  0  0  0  0  0  0  0  0  0
    9.3206   46.1736   31.4706 H   0  0  0  0  0  0  0  0  0  0  0  0
    8.6909   43.0171   30.2516 H   0  0  0  0  0  0  0  0  0  0  0  0
   12.0603   45.5676   31.1295 H   0  0  0  0  0  0  0  0  0  0  0  0
   10.0388   41.8247   28.5822 H   0  0  0  0  0  0  0  0  0  0  0  0
   13.4071   44.3523   29.5024 H   0  0  0  0  0  0  0  0  0  0  0  0
   14.5466   42.3409   28.5708 H   0  0  0  0  0  0  0  0  0  0  0  0
   14.0569   43.5191   27.2713 H   0  0  0  0  0  0  0  0  0  0  0  0
   14.2456   41.7671   26.8876 H   0  0  0  0  0  0  0  0  0  0  0  0
   11.4329   41.5332   31.4960 H   0  0  0  0  0  0  0  0  0  0  0  0
    9.8411   40.7443   31.7489 H   0  0  0  0  0  0  0  0  0  0  0  0
   11.6993   39.5059   30.3484 H   0  0  0  0  0  0  0  0  0  0  0  0
   10.1098   38.2798   32.6633 H   0  0  0  0  0  0  0  0  0  0  0  0
   13.6671   37.4511   31.2209 H   0  0  0  0  0  0  0  0  0  0  0  0
    8.9773   37.4209   30.9536 H   0  0  0  0  0  0  0  0  0  0  0  0
   11.2847   36.3053   32.5180 H   0  0  0  0  0  0  0  0  0  0  0  0
   10.8660   35.6941   30.4657 H   0  0  0  0  0  0  0  0  0  0  0  0
   12.3355   38.3583   34.7435 H   0  0  0  0  0  0  0  0  0  0  0  0
   16.7574   34.1784   32.4623 H   0  0  0  0  0  0  0  0  0  0  0  0
   16.6361   34.5316   37.1417 H   0  0  0  0  0  0  0  0  0  0  0  0
   15.3530   35.7358   37.5138 H   0  0  0  0  0  0  0  0  0  0  0  0
  1  2  2  0
  1  3  1  0
  3  4  1  0
  4  5  1  0
  6  1  1  0
  7  6  1  0
  6  8  1  0
  8  9  1  0
  9 10  2  0
 11  9  1  0
 10 12  1  0
 13 11  2  0
 12 14  2  0
 14 13  1  0
 14 15  1  0
 15 16  1  0
  4 17  2  0
  4 18  1  0
 19 18  1  0
 19 20  1  0
 20 21  1  0
 20 22  1  0
 21 23  1  0
 22 24  1  0
 22 25  1  0
 25 23  1  0
 23 26  1  0
 25 27  1  0
 28 26  1  0
 29 26  1  0
 30 28  2  0
 28 31  1  0
 32 29  2  0
 33 30  1  0
 31 34  2  0
 31 32  1  0
 35 33  2  0
 35 34  1  0
 34 36  1  0
  6 37  1  1
  7 38  1  0
  7 39  1  0
  8 40  1  0
  8 41  1  0
 10 42  1  0
 11 43  1  0
 12 44  1  0
 13 45  1  0
 16 46  1  0
 16 47  1  0
 16 48  1  0
 19 49  1  0
 19 50  1  0
 20 51  1  0
 22 52  1  0
 23 53  1  0
 24 54  1  0
 25 55  1  0
 27 56  1  0
 29 57  1  0
 33 58  1  0
 36 59  1  0
 36 60  1  0
M  CHG  1   5  -1
M  END
>  <EmbedRMS>  (97) 
0.09133248648791224

$$$$

     RDKit          3D

 60 63  0  0  0  0  0  0  0  0999 V2000
   10.2891   43.7708   33.7903 C   0  0  0  0  0  0  0  0  0  0  0  0
   11.4142   43.5855   34.3415 O   0  0  0  0  0  0  0  0  0  0  0  0
    9.3632   42.7339   33.7102 O   0  0  0  0  0  0  0  0  0  0  0  0
    9.8844   41.2352   34.2872 P   0  0  0  0  0  5  0  0  0  0  0  0
   10.3668   41.4684   35.8770 O   0  0  0  0  0  1  0  0  0  0  0  0
    9.9604   45.1139   33.2282 C   0  0  1  0  0  0  0  0  0  0  0  0
   11.0605   46.0373   33.5113 N   0  0  0  0  0  0  0  0  0  0  0  0
    9.7273   45.0477   31.7012 C   0  0  0  0  0  0  0  0  0  0  0  0
    8.5190   44.2256   31.3187 C   0  0  0  0  0  0  0  0  0  0  0  0
    7.2326   44.6176   31.7230 C   0  0  0  0  0  0  0  0  0  0  0  0
    8.6669   43.0675   30.5399 C   0  0  0  0  0  0  0  0  0  0  0  0
    6.1179   43.8441   31.3855 C   0  0  0  0  0  0  0  0  0  0  0  0
    7.5532   42.2929   30.2052 C   0  0  0  0  0  0  0  0  0  0  0  0
    6.2729   42.6689   30.6259 C   0  0  0  0  0  0  0  0  0  0  0  0
    5.1879   41.8552   30.2680 O   0  0  0  0  0  0  0  0  0  0  0  0
    3.8354   42.1144   30.6299 C   0  0  0  0  0  0  0  0  0  0  0  0
    8.8071   40.1922   34.2104 O   0  0  0  0  0  0  0  0  0  0  0  0
   11.2364   40.7910   33.3710 O   0  0  0  0  0  0  0  0  0  0  0  0
   10.9146   40.6880   31.9987 C   0  0  0  0  0  0  0  0  0  0  0  0
   11.5269   39.3897   31.4389 C   0  0  0  0  0  0  0  0  0  0  0  0
   12.7508   39.0915   32.0846 O   0  0  0  0  0  0  0  0  0  0  0  0
   10.6121   38.1912   31.6455 C   0  0  0  0  0  0  0  0  0  0  0  0
   12.9429   37.6852   32.0296 C   0  0  0  0  0  0  0  0  0  0  0  0
    9.6070   38.0862   30.6603 O   0  0  0  0  0  0  0  0  0  0  0  0
   11.5845   37.0185   31.6878 C   0  0  0  0  0  0  0  0  0  0  0  0
   13.4898   37.2161   33.3250 N   0  0  0  0  0  0  0  0  0  0  0  0
   11.6202   36.3066   30.4689 O   0  0  0  0  0  0  0  0  0  0  0  0
   14.4759   36.3262   33.5739 C   0  0  0  0  0  0  0  0  0  0  0  0
   13.1175   37.6306   34.5699 C   0  0  0  0  0  0  0  0  0  0  0  0
   15.2065   35.6138   32.6746 N   0  0  0  0  0  0  0  0  0  0  0  0
   14.6731   36.2267   34.9191 C   0  0  0  0  0  0  0  0  0  0  0  0
   13.8224   37.0449   35.5793 N   0  0  0  0  0  0  0  0  0  0  0  0
   16.1640   34.7595   33.1551 C   0  0  0  0  0  0  0  0  0  0  0  0
   15.6518   35.3489   35.4136 C   0  0  0  0  0  0  0  0  0  0  0  0
   16.3795   34.6309   34.5046 N   0  0  0  0  0  0  0  0  0  0  0  0
   15.9006   35.1931   36.8094 N   0  0  0  0  0  0  0  0  0  0  0  0
    9.0403   45.4879   33.7301 H   0  0  0  0  0  0  0  0  0  0  0  0
   10.8138   46.9778   33.1252 H   0  0  0  0  0  0  0  0  0  0  0  0
   11.1210   46.1725   34.5477 H   0  0  0  0  0  0  0  0  0  0  0  0
   10.6442   44.6528   31.2094 H   0  0  0  0  0  0  0  0  0  0  0  0
    9.5723   46.0764   31.3091 H   0  0  0  0  0  0  0  0  0  0  0  0
    7.0918   45.5211   32.3027 H   0  0  0  0  0  0  0  0  0  0  0  0
    9.6445   42.7605   30.1920 H   0  0  0  0  0  0  0  0  0  0  0  0
    5.1419   44.1683   31.7196 H   0  0  0  0  0  0  0  0  0  0  0  0
    7.6859   41.3953   29.6145 H   0  0  0  0  0  0  0  0  0  0  0  0
    3.5065   43.0868   30.2064 H   0  0  0  0  0  0  0  0  0  0  0  0
    3.1899   41.3114   30.2189 H   0  0  0  0  0  0  0  0  0  0  0  0
    3.7311   42.1237   31.7355 H   0  0  0  0  0  0  0  0  0  0  0  0
   11.3807   41.5509   31.4774 H   0  0  0  0  0  0  0  0  0  0  0  0
    9.8242   40.7096   31.7652 H   0  0  0  0  0  0  0  0  0  0  0  0
   11.7313   39.5353   30.3536 H   0  0  0  0  0  0  0  0  0  0  0  0
   10.1211   38.2671   32.6415 H   0  0  0  0  0  0  0  0  0  0  0  0
   13.6883   37.4710   31.2320 H   0  0  0  0  0  0  0  0  0  0  0  0
   10.0253   38.1788   29.7658 H   0  0  0  0  0  0  0  0  0  0  0  0
   11.2797   36.3119   32.4911 H   0  0  0  0  0  0  0  0  0  0  0  0
   11.9864   36.9109   29.7712 H   0  0  0  0  0  0  0  0  0  0  0  0
   12.3365   38.3594   34.7454 H   0  0  0  0  0  0  0  0  0  0  0  0
   16.7577   34.1794   32.4622 H   0  0  0  0  0  0  0  0  0  0  0  0
   16.6369   34.5316   37.1418 H   0  0  0  0  0  0  0  0  0  0  0  0
   15.3532   35.7351   37.5144 H   0  0  0  0  0  0  0  0  0  0  0  0
  1  2  2  0
  1  3  1  0
  3  4  1  0
  4  5  1  0
  6  1  1  0
  7  6  1  0
  6  8  1  0
  8  9  1  0
  9 10  2  0
 11  9  1  0
 10 12  1  0
 13 11  2  0
 12 14  2  0
 14 13  1  0
 14 15  1  0
 15 16  1  0
  4 17  2  0
  4 18  1  0
 19 18  1  0
 19 20  1  0
 20 21  1  0
 20 22  1  0
 21 23  1  0
 22 24  1  0
 22 25  1  0
 25 23  1  0
 23 26  1  0
 25 27  1  0
 28 26  1  0
 29 26  1  0
 30 28  2  0
 28 31  1  0
 32 29  2  0
 33 30  1  0
 31 34  2  0
 31 32  1  0
 35 33  2  0
 35 34  1  0
 34 36  1  0
  6 37  1  1
  7 38  1  0
  7 39  1  0
  8 40  1  0
  8 41  1  0
 10 42  1  0
 11 43  1  0
 12 44  1  0
 13 45  1  0
 16 46  1  0
 16 47  1  0
 16 48  1  0
 19 49  1  0
 19 50  1  0
 20 51  1  0
 22 52  1  0
 23 53  1  0
 24 54  1  0
 25 55  1  0
 27 56  1  0
 29 57  1  0
 33 58  1  0
 36 59  1  0
 36 60  1  0
M  CHG  1   5  -1
M  END
>  <EmbedRMS>  (98) 
0.08750588531873733

$$$$

     RDKit          3D

 60 63  0  0  0  0  0  0  0  0999 V2000
   10.2876   43.7724   33.7998 C   0  0  0  0  0  0  0  0  0  0  0  0
   11.4101   43.5905   34.3570 O   0  0  0  0  0  0  0  0  0  0  0  0
    9.3641   42.7339   33.7093 O   0  0  0  0  0  0  0  0  0  0  0  0
    9.8853   41.2350   34.2859 P   0  0  0  0  0  5  0  0  0  0  0  0
   10.3679   41.4675   35.8760 O   0  0  0  0  0  1  0  0  0  0  0  0
    9.9623   45.1043   33.2247 C   0  0  1  0  0  0  0  0  0  0  0  0
   11.0639   46.0310   33.4993 N   0  0  0  0  0  0  0  0  0  0  0  0
    9.6878   44.9762   31.7099 C   0  0  0  0  0  0  0  0  0  0  0  0
    9.2407   46.2845   31.1099 C   0  0  0  0  0  0  0  0  0  0  0  0
    7.9159   46.7183   31.2705 C   0  0  0  0  0  0  0  0  0  0  0  0
   10.1510   47.0992   30.4190 C   0  0  0  0  0  0  0  0  0  0  0  0
    7.5031   47.9429   30.7372 C   0  0  0  0  0  0  0  0  0  0  0  0
    9.7380   48.3235   29.8862 C   0  0  0  0  0  0  0  0  0  0  0  0
    8.4155   48.7562   30.0381 C   0  0  0  0  0  0  0  0  0  0  0  0
    8.0510   49.9927   29.4849 O   0  0  0  0  0  0  0  0  0  0  0  0
    6.7452   50.5548   29.5641 C   0  0  0  0  0  0  0  0  0  0  0  0
    8.8082   40.1917   34.2095 O   0  0  0  0  0  0  0  0  0  0  0  0
   11.2367   40.7929   33.3676 O   0  0  0  0  0  0  0  0  0  0  0  0
   10.9139   40.6893   31.9949 C   0  0  0  0  0  0  0  0  0  0  0  0
   11.5254   39.3878   31.4369 C   0  0  0  0  0  0  0  0  0  0  0  0
   12.7485   39.0900   32.0824 O   0  0  0  0  0  0  0  0  0  0  0  0
   10.6120   38.1897   31.6461 C   0  0  0  0  0  0  0  0  0  0  0  0
   12.9371   37.6833   32.0302 C   0  0  0  0  0  0  0  0  0  0  0  0
    9.6149   38.0841   30.6537 O   0  0  0  0  0  0  0  0  0  0  0  0
   11.5792   37.0141   31.7014 C   0  0  0  0  0  0  0  0  0  0  0  0
   13.4906   37.2172   33.3242 N   0  0  0  0  0  0  0  0  0  0  0  0
   11.6217   36.3256   30.4726 O   0  0  0  0  0  0  0  0  0  0  0  0
   14.4763   36.3268   33.5730 C   0  0  0  0  0  0  0  0  0  0  0  0
   13.1181   37.6310   34.5695 C   0  0  0  0  0  0  0  0  0  0  0  0
   15.2065   35.6138   32.6739 N   0  0  0  0  0  0  0  0  0  0  0  0
   14.6735   36.2270   34.9184 C   0  0  0  0  0  0  0  0  0  0  0  0
   13.8228   37.0451   35.5787 N   0  0  0  0  0  0  0  0  0  0  0  0
   16.1638   34.7594   33.1546 C   0  0  0  0  0  0  0  0  0  0  0  0
   15.6518   35.3489   35.4131 C   0  0  0  0  0  0  0  0  0  0  0  0
   16.3794   34.6308   34.5041 N   0  0  0  0  0  0  0  0  0  0  0  0
   15.9006   35.1931   36.8089 N   0  0  0  0  0  0  0  0  0  0  0  0
    9.0442   45.4725   33.7344 H   0  0  0  0  0  0  0  0  0  0  0  0
   11.8658   45.8304   32.8570 H   0  0  0  0  0  0  0  0  0  0  0  0
   10.7422   47.0072   33.3069 H   0  0  0  0  0  0  0  0  0  0  0  0
   10.5974   44.6020   31.1891 H   0  0  0  0  0  0  0  0  0  0  0  0
    8.8904   44.2196   31.5378 H   0  0  0  0  0  0  0  0  0  0  0  0
    7.2030   46.1075   31.8109 H   0  0  0  0  0  0  0  0  0  0  0  0
   11.1812   46.7887   30.2959 H   0  0  0  0  0  0  0  0  0  0  0  0
    6.4751   48.2484   30.8759 H   0  0  0  0  0  0  0  0  0  0  0  0
   10.4502   48.9414   29.3541 H   0  0  0  0  0  0  0  0  0  0  0  0
    6.4624   50.7154   30.6259 H   0  0  0  0  0  0  0  0  0  0  0  0
    6.7398   51.5340   29.0431 H   0  0  0  0  0  0  0  0  0  0  0  0
    6.0104   49.8848   29.0697 H   0  0  0  0  0  0  0  0  0  0  0  0
    9.8234   40.7185   31.7594 H   0  0  0  0  0  0  0  0  0  0  0  0
   11.3794   41.5518   31.4715 H   0  0  0  0  0  0  0  0  0  0  0  0
   11.7286   39.5295   30.3508 H   0  0  0  0  0  0  0  0  0  0  0  0
   10.1135   38.2721   32.6379 H   0  0  0  0  0  0  0  0  0  0  0  0
   13.6723   37.4646   31.2240 H   0  0  0  0  0  0  0  0  0  0  0  0
   10.0536   38.1090   29.7638 H   0  0  0  0  0  0  0  0  0  0  0  0
   11.2645   36.3139   32.5108 H   0  0  0  0  0  0  0  0  0  0  0  0
   12.1552   35.5037   30.6317 H   0  0  0  0  0  0  0  0  0  0  0  0
   12.3362   38.3588   34.7452 H   0  0  0  0  0  0  0  0  0  0  0  0
   16.7572   34.1789   32.4618 H   0  0  0  0  0  0  0  0  0  0  0  0
   15.3533   35.7353   37.5139 H   0  0  0  0  0  0  0  0  0  0  0  0
   16.6366   34.5314   37.1414 H   0  0  0  0  0  0  0  0  0  0  0  0
  1  2  2  0
  1  3  1  0
  3  4  1  0
  4  5  1  0
  6  1  1  0
  7  6  1  0
  6  8  1  0
  8  9  1  0
  9 10  2  0
 11  9  1  0
 10 12  1  0
 13 11  2  0
 12 14  2  0
 14 13  1  0
 14 15  1  0
 15 16  1  0
  4 17  2  0
  4 18  1  0
 19 18  1  0
 19 20  1  0
 20 21  1  0
 20 22  1  0
 21 23  1  0
 22 24  1  0
 22 25  1  0
 25 23  1  0
 23 26  1  0
 25 27  1  0
 28 26  1  0
 29 26  1  0
 30 28  2  0
 28 31  1  0
 32 29  2  0
 33 30  1  0
 31 34  2  0
 31 32  1  0
 35 33  2  0
 35 34  1  0
 34 36  1  0
  6 37  1  1
  7 38  1  0
  7 39  1  0
  8 40  1  0
  8 41  1  0
 10 42  1  0
 11 43  1  0
 12 44  1  0
 13 45  1  0
 16 46  1  0
 16 47  1  0
 16 48  1  0
 19 49  1  0
 19 50  1  0
 20 51  1  0
 22 52  1  0
 23 53  1  0
 24 54  1  0
 25 55  1  0
 27 56  1  0
 29 57  1  0
 33 58  1  0
 36 59  1  0
 36 60  1  0
M  CHG  1   5  -1
M  END
>  <EmbedRMS>  (99) 
0.0875348968261466

$$$$

     RDKit          3D

 60 63  0  0  0  0  0  0  0  0999 V2000
   10.2895   43.7708   33.7893 C   0  0  0  0  0  0  0  0  0  0  0  0
   11.4116   43.5887   34.3476 O   0  0  0  0  0  0  0  0  0  0  0  0
    9.3642   42.7334   33.7088 O   0  0  0  0  0  0  0  0  0  0  0  0
    9.8853   41.2350   34.2865 P   0  0  0  0  0  5  0  0  0  0  0  0
   10.3675   41.4684   35.8764 O   0  0  0  0  0  1  0  0  0  0  0  0
    9.9589   45.1132   33.2311 C   0  0  1  0  0  0  0  0  0  0  0  0
   11.0633   46.0340   33.5072 N   0  0  0  0  0  0  0  0  0  0  0  0
    9.6717   45.0599   31.7111 C   0  0  0  0  0  0  0  0  0  0  0  0
    8.4283   44.2722   31.3735 C   0  0  0  0  0  0  0  0  0  0  0  0
    8.5206   43.0828   30.6341 C   0  0  0  0  0  0  0  0  0  0  0  0
    7.1656   44.7223   31.7906 C   0  0  0  0  0  0  0  0  0  0  0  0
    7.3736   42.3390   30.3454 C   0  0  0  0  0  0  0  0  0  0  0  0
    6.0176   43.9795   31.4989 C   0  0  0  0  0  0  0  0  0  0  0  0
    6.1157   42.7756   30.7755 C   0  0  0  0  0  0  0  0  0  0  0  0
    4.9954   41.9912   30.4636 O   0  0  0  0  0  0  0  0  0  0  0  0
    3.6601   42.3119   30.8398 C   0  0  0  0  0  0  0  0  0  0  0  0
    8.8076   40.1923   34.2100 O   0  0  0  0  0  0  0  0  0  0  0  0
   11.2369   40.7910   33.3694 O   0  0  0  0  0  0  0  0  0  0  0  0
   10.9139   40.6869   31.9973 C   0  0  0  0  0  0  0  0  0  0  0  0
   11.5249   39.3871   31.4376 C   0  0  0  0  0  0  0  0  0  0  0  0
   12.7485   39.0880   32.0810 O   0  0  0  0  0  0  0  0  0  0  0  0
   10.6101   38.1904   31.6471 C   0  0  0  0  0  0  0  0  0  0  0  0
   12.9349   37.6809   32.0293 C   0  0  0  0  0  0  0  0  0  0  0  0
    9.6127   38.0875   30.6546 O   0  0  0  0  0  0  0  0  0  0  0  0
   11.5769   37.0131   31.7023 C   0  0  0  0  0  0  0  0  0  0  0  0
   13.4901   37.2164   33.3237 N   0  0  0  0  0  0  0  0  0  0  0  0
   11.6324   36.3233   30.4737 O   0  0  0  0  0  0  0  0  0  0  0  0
   14.4763   36.3265   33.5728 C   0  0  0  0  0  0  0  0  0  0  0  0
   13.1179   37.6306   34.5689 C   0  0  0  0  0  0  0  0  0  0  0  0
   15.2065   35.6135   32.6739 N   0  0  0  0  0  0  0  0  0  0  0  0
   14.6736   36.2272   34.9182 C   0  0  0  0  0  0  0  0  0  0  0  0
   13.8228   37.0452   35.5784 N   0  0  0  0  0  0  0  0  0  0  0  0
   16.1640   34.7592   33.1547 C   0  0  0  0  0  0  0  0  0  0  0  0
   15.6519   35.3491   35.4131 C   0  0  0  0  0  0  0  0  0  0  0  0
   16.3795   34.6309   34.5042 N   0  0  0  0  0  0  0  0  0  0  0  0
   15.9005   35.1933   36.8089 N   0  0  0  0  0  0  0  0  0  0  0  0
    9.0574   45.4858   33.7648 H   0  0  0  0  0  0  0  0  0  0  0  0
   11.8785   45.8017   32.8927 H   0  0  0  0  0  0  0  0  0  0  0  0
   10.7583   47.0044   33.2626 H   0  0  0  0  0  0  0  0  0  0  0  0
   10.5563   44.6392   31.1830 H   0  0  0  0  0  0  0  0  0  0  0  0
    9.5342   46.0953   31.3302 H   0  0  0  0  0  0  0  0  0  0  0  0
    9.4803   42.7283   30.2818 H   0  0  0  0  0  0  0  0  0  0  0  0
    7.0697   45.6472   32.3454 H   0  0  0  0  0  0  0  0  0  0  0  0
    7.4627   41.4178   29.7834 H   0  0  0  0  0  0  0  0  0  0  0  0
    5.0605   44.3492   31.8405 H   0  0  0  0  0  0  0  0  0  0  0  0
    3.5764   42.3607   31.9460 H   0  0  0  0  0  0  0  0  0  0  0  0
    2.9783   41.5206   30.4664 H   0  0  0  0  0  0  0  0  0  0  0  0
    3.3593   43.2817   30.3902 H   0  0  0  0  0  0  0  0  0  0  0  0
    9.8232   40.7084   31.7650 H   0  0  0  0  0  0  0  0  0  0  0  0
   11.3782   41.5498   31.4738 H   0  0  0  0  0  0  0  0  0  0  0  0
   11.7267   39.5299   30.3514 H   0  0  0  0  0  0  0  0  0  0  0  0
   10.1120   38.2718   32.6391 H   0  0  0  0  0  0  0  0  0  0  0  0
   13.6687   37.4597   31.2226 H   0  0  0  0  0  0  0  0  0  0  0  0
   10.0513   38.1132   29.7647 H   0  0  0  0  0  0  0  0  0  0  0  0
   11.2805   36.3124   32.5190 H   0  0  0  0  0  0  0  0  0  0  0  0
   10.8624   35.6966   30.4637 H   0  0  0  0  0  0  0  0  0  0  0  0
   12.3356   38.3580   34.7445 H   0  0  0  0  0  0  0  0  0  0  0  0
   16.7575   34.1787   32.4619 H   0  0  0  0  0  0  0  0  0  0  0  0
   16.6364   34.5315   37.1415 H   0  0  0  0  0  0  0  0  0  0  0  0
   15.3531   35.7355   37.5138 H   0  0  0  0  0  0  0  0  0  0  0  0
  1  2  2  0
  1  3  1  0
  3  4  1  0
  4  5  1  0
  6  1  1  0
  7  6  1  0
  6  8  1  0
  8  9  1  0
  9 10  2  0
 11  9  1  0
 10 12  1  0
 13 11  2  0
 12 14  2  0
 14 13  1  0
 14 15  1  0
 15 16  1  0
  4 17  2  0
  4 18  1  0
 19 18  1  0
 19 20  1  0
 20 21  1  0
 20 22  1  0
 21 23  1  0
 22 24  1  0
 22 25  1  0
 25 23  1  0
 23 26  1  0
 25 27  1  0
 28 26  1  0
 29 26  1  0
 30 28  2  0
 28 31  1  0
 32 29  2  0
 33 30  1  0
 31 34  2  0
 31 32  1  0
 35 33  2  0
 35 34  1  0
 34 36  1  0
  6 37  1  1
  7 38  1  0
  7 39  1  0
  8 40  1  0
  8 41  1  0
 10 42  1  0
 11 43  1  0
 12 44  1  0
 13 45  1  0
 16 46  1  0
 16 47  1  0
 16 48  1  0
 19 49  1  0
 19 50  1  0
 20 51  1  0
 22 52  1  0
 23 53  1  0
 24 54  1  0
 25 55  1  0
 27 56  1  0
 29 57  1  0
 33 58  1  0
 36 59  1  0
 36 60  1  0
M  CHG  1   5  -1
M  END
>  <EmbedRMS>  (100) 
0.0883520483037296

$$$$

     RDKit          3D

 60 63  0  0  0  0  0  0  0  0999 V2000
   10.2904   43.7682   33.8031 C   0  0  0  0  0  0  0  0  0  0  0  0
   11.4117   43.5807   34.3603 O   0  0  0  0  0  0  0  0  0  0  0  0
    9.3643   42.7327   33.7094 O   0  0  0  0  0  0  0  0  0  0  0  0
    9.8843   41.2331   34.2850 P   0  0  0  0  0  5  0  0  0  0  0  0
   10.3672   41.4653   35.8751 O   0  0  0  0  0  1  0  0  0  0  0  0
    9.9697   45.1050   33.2283 C   0  0  1  0  0  0  0  0  0  0  0  0
   11.0570   46.0521   33.4895 N   0  0  0  0  0  0  0  0  0  0  0  0
    9.7166   44.9860   31.7145 C   0  0  0  0  0  0  0  0  0  0  0  0
    9.2995   46.3075   31.1219 C   0  0  0  0  0  0  0  0  0  0  0  0
    7.9643   46.7301   31.2081 C   0  0  0  0  0  0  0  0  0  0  0  0
   10.2483   47.1481   30.5194 C   0  0  0  0  0  0  0  0  0  0  0  0
    7.5808   47.9676   30.6838 C   0  0  0  0  0  0  0  0  0  0  0  0
    9.8643   48.3860   29.9952 C   0  0  0  0  0  0  0  0  0  0  0  0
    8.5222   48.8046   30.0736 C   0  0  0  0  0  0  0  0  0  0  0  0
    8.0870   50.0366   29.5630 O   0  0  0  0  0  0  0  0  0  0  0  0
    8.9334   50.9841   28.9200 C   0  0  0  0  0  0  0  0  0  0  0  0
    8.8067   40.1904   34.2085 O   0  0  0  0  0  0  0  0  0  0  0  0
   11.2357   40.7922   33.3657 O   0  0  0  0  0  0  0  0  0  0  0  0
   10.9121   40.6852   31.9932 C   0  0  0  0  0  0  0  0  0  0  0  0
   11.5168   39.3780   31.4397 C   0  0  0  0  0  0  0  0  0  0  0  0
   12.7471   39.0875   32.0760 O   0  0  0  0  0  0  0  0  0  0  0  0
   10.6066   38.1854   31.6656 C   0  0  0  0  0  0  0  0  0  0  0  0
   12.9370   37.6817   32.0291 C   0  0  0  0  0  0  0  0  0  0  0  0
    9.6402   38.0884   30.6474 O   0  0  0  0  0  0  0  0  0  0  0  0
   11.5788   37.0138   31.7045 C   0  0  0  0  0  0  0  0  0  0  0  0
   13.4915   37.2184   33.3239 N   0  0  0  0  0  0  0  0  0  0  0  0
   11.6125   36.3391   30.4674 O   0  0  0  0  0  0  0  0  0  0  0  0
   14.4765   36.3273   33.5730 C   0  0  0  0  0  0  0  0  0  0  0  0
   13.1184   37.6318   34.5691 C   0  0  0  0  0  0  0  0  0  0  0  0
   15.2066   35.6140   32.6740 N   0  0  0  0  0  0  0  0  0  0  0  0
   14.6735   36.2274   34.9184 C   0  0  0  0  0  0  0  0  0  0  0  0
   13.8227   37.0456   35.5785 N   0  0  0  0  0  0  0  0  0  0  0  0
   16.1637   34.7594   33.1547 C   0  0  0  0  0  0  0  0  0  0  0  0
   15.6516   35.3491   35.4131 C   0  0  0  0  0  0  0  0  0  0  0  0
   16.3792   34.6309   34.5042 N   0  0  0  0  0  0  0  0  0  0  0  0
   15.9003   35.1932   36.8090 N   0  0  0  0  0  0  0  0  0  0  0  0
    9.0440   45.4767   33.7208 H   0  0  0  0  0  0  0  0  0  0  0  0
   11.1828   46.1617   34.5226 H   0  0  0  0  0  0  0  0  0  0  0  0
   11.9531   45.6972   33.0807 H   0  0  0  0  0  0  0  0  0  0  0  0
   10.6322   44.6089   31.2061 H   0  0  0  0  0  0  0  0  0  0  0  0
    8.9141   44.2388   31.5254 H   0  0  0  0  0  0  0  0  0  0  0  0
    7.2211   46.1013   31.6829 H   0  0  0  0  0  0  0  0  0  0  0  0
   11.2865   46.8459   30.4574 H   0  0  0  0  0  0  0  0  0  0  0  0
    6.5465   48.2798   30.7544 H   0  0  0  0  0  0  0  0  0  0  0  0
   10.6180   49.0099   29.5346 H   0  0  0  0  0  0  0  0  0  0  0  0
    8.3288   51.8633   28.6170 H   0  0  0  0  0  0  0  0  0  0  0  0
    9.3883   50.5352   28.0118 H   0  0  0  0  0  0  0  0  0  0  0  0
    9.7277   51.3223   29.6185 H   0  0  0  0  0  0  0  0  0  0  0  0
    9.8217   40.7194   31.7578 H   0  0  0  0  0  0  0  0  0  0  0  0
   11.3824   41.5428   31.4662 H   0  0  0  0  0  0  0  0  0  0  0  0
   11.7002   39.5026   30.3474 H   0  0  0  0  0  0  0  0  0  0  0  0
   10.1093   38.2753   32.6605 H   0  0  0  0  0  0  0  0  0  0  0  0
   13.6711   37.4601   31.2227 H   0  0  0  0  0  0  0  0  0  0  0  0
    9.0032   37.3836   30.9349 H   0  0  0  0  0  0  0  0  0  0  0  0
   11.2705   36.3052   32.5089 H   0  0  0  0  0  0  0  0  0  0  0  0
   12.1445   35.5140   30.6142 H   0  0  0  0  0  0  0  0  0  0  0  0
   12.3362   38.3593   34.7446 H   0  0  0  0  0  0  0  0  0  0  0  0
   16.7570   34.1787   32.4619 H   0  0  0  0  0  0  0  0  0  0  0  0
   16.6363   34.5314   37.1415 H   0  0  0  0  0  0  0  0  0  0  0  0
   15.3532   35.7355   37.5139 H   0  0  0  0  0  0  0  0  0  0  0  0
  1  2  2  0
  1  3  1  0
  3  4  1  0
  4  5  1  0
  6  1  1  0
  7  6  1  0
  6  8  1  0
  8  9  1  0
  9 10  2  0
 11  9  1  0
 10 12  1  0
 13 11  2  0
 12 14  2  0
 14 13  1  0
 14 15  1  0
 15 16  1  0
  4 17  2  0
  4 18  1  0
 19 18  1  0
 19 20  1  0
 20 21  1  0
 20 22  1  0
 21 23  1  0
 22 24  1  0
 22 25  1  0
 25 23  1  0
 23 26  1  0
 25 27  1  0
 28 26  1  0
 29 26  1  0
 30 28  2  0
 28 31  1  0
 32 29  2  0
 33 30  1  0
 31 34  2  0
 31 32  1  0
 35 33  2  0
 35 34  1  0
 34 36  1  0
  6 37  1  1
  7 38  1  0
  7 39  1  0
  8 40  1  0
  8 41  1  0
 10 42  1  0
 11 43  1  0
 12 44  1  0
 13 45  1  0
 16 46  1  0
 16 47  1  0
 16 48  1  0
 19 49  1  0
 19 50  1  0
 20 51  1  0
 22 52  1  0
 23 53  1  0
 24 54  1  0
 25 55  1  0
 27 56  1  0
 29 57  1  0
 33 58  1  0
 36 59  1  0
 36 60  1  0
M  CHG  1   5  -1
M  END
>  <EmbedRMS>  (101) 
0.08924155135653401

$$$$

     RDKit          3D

 60 63  0  0  0  0  0  0  0  0999 V2000
   10.2942   43.7719   33.7962 C   0  0  0  0  0  0  0  0  0  0  0  0
   11.4141   43.5897   34.3578 O   0  0  0  0  0  0  0  0  0  0  0  0
    9.3672   42.7358   33.7087 O   0  0  0  0  0  0  0  0  0  0  0  0
    9.8871   41.2359   34.2845 P   0  0  0  0  0  5  0  0  0  0  0  0
   10.3697   41.4673   35.8747 O   0  0  0  0  0  1  0  0  0  0  0  0
    9.9760   45.1032   33.2098 C   0  0  1  0  0  0  0  0  0  0  0  0
   11.0438   46.0545   33.5254 N   0  0  0  0  0  0  0  0  0  0  0  0
    9.7495   45.0009   31.6776 C   0  0  0  0  0  0  0  0  0  0  0  0
   10.9951   45.2171   30.8397 C   0  0  0  0  0  0  0  0  0  0  0  0
   12.1346   44.4150   31.0141 C   0  0  0  0  0  0  0  0  0  0  0  0
   11.0118   46.2138   29.8491 C   0  0  0  0  0  0  0  0  0  0  0  0
   13.2685   44.6104   30.2213 C   0  0  0  0  0  0  0  0  0  0  0  0
   12.1464   46.4091   29.0560 C   0  0  0  0  0  0  0  0  0  0  0  0
   13.2866   45.6049   29.2380 C   0  0  0  0  0  0  0  0  0  0  0  0
   14.4491   45.7610   28.4685 O   0  0  0  0  0  0  0  0  0  0  0  0
   14.6059   46.7301   27.4371 C   0  0  0  0  0  0  0  0  0  0  0  0
    8.8093   40.1931   34.2080 O   0  0  0  0  0  0  0  0  0  0  0  0
   11.2379   40.7958   33.3636 O   0  0  0  0  0  0  0  0  0  0  0  0
   10.9098   40.6814   31.9926 C   0  0  0  0  0  0  0  0  0  0  0  0
   11.5149   39.3759   31.4402 C   0  0  0  0  0  0  0  0  0  0  0  0
   12.7456   39.0869   32.0761 O   0  0  0  0  0  0  0  0  0  0  0  0
   10.6043   38.1833   31.6661 C   0  0  0  0  0  0  0  0  0  0  0  0
   12.9358   37.6813   32.0291 C   0  0  0  0  0  0  0  0  0  0  0  0
    9.6416   38.0701   30.6446 O   0  0  0  0  0  0  0  0  0  0  0  0
   11.5771   37.0135   31.7043 C   0  0  0  0  0  0  0  0  0  0  0  0
   13.4909   37.2182   33.3238 N   0  0  0  0  0  0  0  0  0  0  0  0
   11.6115   36.3389   30.4672 O   0  0  0  0  0  0  0  0  0  0  0  0
   14.4762   36.3273   33.5729 C   0  0  0  0  0  0  0  0  0  0  0  0
   13.1181   37.6318   34.5690 C   0  0  0  0  0  0  0  0  0  0  0  0
   15.2063   35.6140   32.6739 N   0  0  0  0  0  0  0  0  0  0  0  0
   14.6734   36.2275   34.9183 C   0  0  0  0  0  0  0  0  0  0  0  0
   13.8227   37.0457   35.5784 N   0  0  0  0  0  0  0  0  0  0  0  0
   16.1636   34.7595   33.1546 C   0  0  0  0  0  0  0  0  0  0  0  0
   15.6516   35.3492   35.4131 C   0  0  0  0  0  0  0  0  0  0  0  0
   16.3791   34.6310   34.5041 N   0  0  0  0  0  0  0  0  0  0  0  0
   15.9003   35.1933   36.8089 N   0  0  0  0  0  0  0  0  0  0  0  0
    9.0285   45.4509   33.6807 H   0  0  0  0  0  0  0  0  0  0  0  0
   11.0599   46.2024   34.5614 H   0  0  0  0  0  0  0  0  0  0  0  0
   10.7865   46.9816   33.1142 H   0  0  0  0  0  0  0  0  0  0  0  0
    8.9852   45.7611   31.4033 H   0  0  0  0  0  0  0  0  0  0  0  0
    9.3040   44.0187   31.4068 H   0  0  0  0  0  0  0  0  0  0  0  0
   12.1577   43.6481   31.7721 H   0  0  0  0  0  0  0  0  0  0  0  0
   10.1454   46.8430   29.6873 H   0  0  0  0  0  0  0  0  0  0  0  0
   14.1398   43.9859   30.3732 H   0  0  0  0  0  0  0  0  0  0  0  0
   12.1256   47.1862   28.3042 H   0  0  0  0  0  0  0  0  0  0  0  0
   14.4985   47.7533   27.8550 H   0  0  0  0  0  0  0  0  0  0  0  0
   13.8533   46.5623   26.6380 H   0  0  0  0  0  0  0  0  0  0  0  0
   15.6193   46.6305   26.9972 H   0  0  0  0  0  0  0  0  0  0  0  0
   11.3790   41.5282   31.4552 H   0  0  0  0  0  0  0  0  0  0  0  0
    9.8201   40.7233   31.7597 H   0  0  0  0  0  0  0  0  0  0  0  0
   11.6976   39.4995   30.3476 H   0  0  0  0  0  0  0  0  0  0  0  0
   10.1096   38.2565   32.6644 H   0  0  0  0  0  0  0  0  0  0  0  0
   13.6699   37.4600   31.2226 H   0  0  0  0  0  0  0  0  0  0  0  0
    8.8946   38.6769   30.8862 H   0  0  0  0  0  0  0  0  0  0  0  0
   11.2707   36.3035   32.5083 H   0  0  0  0  0  0  0  0  0  0  0  0
   12.1457   35.5150   30.6135 H   0  0  0  0  0  0  0  0  0  0  0  0
   12.3359   38.3592   34.7446 H   0  0  0  0  0  0  0  0  0  0  0  0
   16.7569   34.1789   32.4618 H   0  0  0  0  0  0  0  0  0  0  0  0
   16.6362   34.5315   37.1414 H   0  0  0  0  0  0  0  0  0  0  0  0
   15.3531   35.7356   37.5138 H   0  0  0  0  0  0  0  0  0  0  0  0
  1  2  2  0
  1  3  1  0
  3  4  1  0
  4  5  1  0
  6  1  1  0
  7  6  1  0
  6  8  1  0
  8  9  1  0
  9 10  2  0
 11  9  1  0
 10 12  1  0
 13 11  2  0
 12 14  2  0
 14 13  1  0
 14 15  1  0
 15 16  1  0
  4 17  2  0
  4 18  1  0
 19 18  1  0
 19 20  1  0
 20 21  1  0
 20 22  1  0
 21 23  1  0
 22 24  1  0
 22 25  1  0
 25 23  1  0
 23 26  1  0
 25 27  1  0
 28 26  1  0
 29 26  1  0
 30 28  2  0
 28 31  1  0
 32 29  2  0
 33 30  1  0
 31 34  2  0
 31 32  1  0
 35 33  2  0
 35 34  1  0
 34 36  1  0
  6 37  1  1
  7 38  1  0
  7 39  1  0
  8 40  1  0
  8 41  1  0
 10 42  1  0
 11 43  1  0
 12 44  1  0
 13 45  1  0
 16 46  1  0
 16 47  1  0
 16 48  1  0
 19 49  1  0
 19 50  1  0
 20 51  1  0
 22 52  1  0
 23 53  1  0
 24 54  1  0
 25 55  1  0
 27 56  1  0
 29 57  1  0
 33 58  1  0
 36 59  1  0
 36 60  1  0
M  CHG  1   5  -1
M  END
>  <EmbedRMS>  (102) 
0.09012164171297969

$$$$

     RDKit          3D

 60 63  0  0  0  0  0  0  0  0999 V2000
   10.2924   43.7669   33.7916 C   0  0  0  0  0  0  0  0  0  0  0  0
   11.4137   43.5794   34.3492 O   0  0  0  0  0  0  0  0  0  0  0  0
    9.3645   42.7323   33.7093 O   0  0  0  0  0  0  0  0  0  0  0  0
    9.8839   41.2333   34.2865 P   0  0  0  0  0  5  0  0  0  0  0  0
   10.3662   41.4667   35.8764 O   0  0  0  0  0  1  0  0  0  0  0  0
    9.9654   45.1142   33.2335 C   0  0  1  0  0  0  0  0  0  0  0  0
   11.0559   46.0545   33.4999 N   0  0  0  0  0  0  0  0  0  0  0  0
    9.6998   45.0687   31.7138 C   0  0  0  0  0  0  0  0  0  0  0  0
    8.4819   44.2533   31.3489 C   0  0  0  0  0  0  0  0  0  0  0  0
    7.2027   44.6585   31.7616 C   0  0  0  0  0  0  0  0  0  0  0  0
    8.6158   43.0803   30.5899 C   0  0  0  0  0  0  0  0  0  0  0  0
    6.0818   43.8841   31.4490 C   0  0  0  0  0  0  0  0  0  0  0  0
    7.4957   42.3040   30.2810 C   0  0  0  0  0  0  0  0  0  0  0  0
    6.2166   42.7003   30.7145 C   0  0  0  0  0  0  0  0  0  0  0  0
    5.0630   41.9523   30.4366 O   0  0  0  0  0  0  0  0  0  0  0  0
    5.0560   40.7261   29.7128 C   0  0  0  0  0  0  0  0  0  0  0  0
    8.8060   40.1911   34.2095 O   0  0  0  0  0  0  0  0  0  0  0  0
   11.2360   40.7894   33.3699 O   0  0  0  0  0  0  0  0  0  0  0  0
   10.9140   40.6860   31.9975 C   0  0  0  0  0  0  0  0  0  0  0  0
   11.5259   39.3868   31.4377 C   0  0  0  0  0  0  0  0  0  0  0  0
   12.7491   39.0892   32.0824 O   0  0  0  0  0  0  0  0  0  0  0  0
   10.6122   38.1888   31.6462 C   0  0  0  0  0  0  0  0  0  0  0  0
   12.9373   37.6826   32.0302 C   0  0  0  0  0  0  0  0  0  0  0  0
    9.6149   38.0842   30.6538 O   0  0  0  0  0  0  0  0  0  0  0  0
   11.5793   37.0134   31.7011 C   0  0  0  0  0  0  0  0  0  0  0  0
   13.4906   37.2168   33.3243 N   0  0  0  0  0  0  0  0  0  0  0  0
   11.6217   36.3255   30.4720 O   0  0  0  0  0  0  0  0  0  0  0  0
   14.4763   36.3265   33.5731 C   0  0  0  0  0  0  0  0  0  0  0  0
   13.1181   37.6307   34.5694 C   0  0  0  0  0  0  0  0  0  0  0  0
   15.2065   35.6136   32.6740 N   0  0  0  0  0  0  0  0  0  0  0  0
   14.6736   36.2269   34.9185 C   0  0  0  0  0  0  0  0  0  0  0  0
   13.8229   37.0450   35.5788 N   0  0  0  0  0  0  0  0  0  0  0  0
   16.1639   34.7593   33.1547 C   0  0  0  0  0  0  0  0  0  0  0  0
   15.6519   35.3489   35.4132 C   0  0  0  0  0  0  0  0  0  0  0  0
   16.3795   34.6308   34.5042 N   0  0  0  0  0  0  0  0  0  0  0  0
   15.9006   35.1931   36.8090 N   0  0  0  0  0  0  0  0  0  0  0  0
    9.0550   45.4885   33.7501 H   0  0  0  0  0  0  0  0  0  0  0  0
   11.9490   45.7022   33.0821 H   0  0  0  0  0  0  0  0  0  0  0  0
   11.1885   46.1519   34.5335 H   0  0  0  0  0  0  0  0  0  0  0  0
   10.6030   44.6769   31.1949 H   0  0  0  0  0  0  0  0  0  0  0  0
    9.5429   46.1057   31.3445 H   0  0  0  0  0  0  0  0  0  0  0  0
    7.0731   45.5707   32.3303 H   0  0  0  0  0  0  0  0  0  0  0  0
    9.5888   42.7619   30.2394 H   0  0  0  0  0  0  0  0  0  0  0  0
    5.1025   44.2039   31.7820 H   0  0  0  0  0  0  0  0  0  0  0  0
    7.6356   41.3990   29.7057 H   0  0  0  0  0  0  0  0  0  0  0  0
    5.4414   40.8879   28.6840 H   0  0  0  0  0  0  0  0  0  0  0  0
    4.0146   40.3499   29.6469 H   0  0  0  0  0  0  0  0  0  0  0  0
    5.6754   39.9689   30.2385 H   0  0  0  0  0  0  0  0  0  0  0  0
    9.8236   40.7076   31.7643 H   0  0  0  0  0  0  0  0  0  0  0  0
   11.3798   41.5488   31.4755 H   0  0  0  0  0  0  0  0  0  0  0  0
   11.7283   39.5301   30.3517 H   0  0  0  0  0  0  0  0  0  0  0  0
   10.1136   38.2706   32.6380 H   0  0  0  0  0  0  0  0  0  0  0  0
   13.6727   37.4638   31.2241 H   0  0  0  0  0  0  0  0  0  0  0  0
   10.0532   38.1113   29.7638 H   0  0  0  0  0  0  0  0  0  0  0  0
   11.2647   36.3129   32.5102 H   0  0  0  0  0  0  0  0  0  0  0  0
   12.1553   35.5036   30.6307 H   0  0  0  0  0  0  0  0  0  0  0  0
   12.3361   38.3585   34.7450 H   0  0  0  0  0  0  0  0  0  0  0  0
   16.7574   34.1788   32.4619 H   0  0  0  0  0  0  0  0  0  0  0  0
   15.3533   35.7353   37.5139 H   0  0  0  0  0  0  0  0  0  0  0  0
   16.6366   34.5314   37.1415 H   0  0  0  0  0  0  0  0  0  0  0  0
  1  2  2  0
  1  3  1  0
  3  4  1  0
  4  5  1  0
  6  1  1  0
  7  6  1  0
  6  8  1  0
  8  9  1  0
  9 10  2  0
 11  9  1  0
 10 12  1  0
 13 11  2  0
 12 14  2  0
 14 13  1  0
 14 15  1  0
 15 16  1  0
  4 17  2  0
  4 18  1  0
 19 18  1  0
 19 20  1  0
 20 21  1  0
 20 22  1  0
 21 23  1  0
 22 24  1  0
 22 25  1  0
 25 23  1  0
 23 26  1  0
 25 27  1  0
 28 26  1  0
 29 26  1  0
 30 28  2  0
 28 31  1  0
 32 29  2  0
 33 30  1  0
 31 34  2  0
 31 32  1  0
 35 33  2  0
 35 34  1  0
 34 36  1  0
  6 37  1  1
  7 38  1  0
  7 39  1  0
  8 40  1  0
  8 41  1  0
 10 42  1  0
 11 43  1  0
 12 44  1  0
 13 45  1  0
 16 46  1  0
 16 47  1  0
 16 48  1  0
 19 49  1  0
 19 50  1  0
 20 51  1  0
 22 52  1  0
 23 53  1  0
 24 54  1  0
 25 55  1  0
 27 56  1  0
 29 57  1  0
 33 58  1  0
 36 59  1  0
 36 60  1  0
M  CHG  1   5  -1
M  END
>  <EmbedRMS>  (103) 
0.0890091982635506

$$$$

     RDKit          3D

 60 63  0  0  0  0  0  0  0  0999 V2000
   10.2905   43.7682   33.8031 C   0  0  0  0  0  0  0  0  0  0  0  0
   11.4118   43.5808   34.3603 O   0  0  0  0  0  0  0  0  0  0  0  0
    9.3644   42.7327   33.7094 O   0  0  0  0  0  0  0  0  0  0  0  0
    9.8844   41.2330   34.2850 P   0  0  0  0  0  5  0  0  0  0  0  0
   10.3672   41.4653   35.8752 O   0  0  0  0  0  1  0  0  0  0  0  0
    9.9697   45.1049   33.2283 C   0  0  1  0  0  0  0  0  0  0  0  0
   11.0568   46.0522   33.4895 N   0  0  0  0  0  0  0  0  0  0  0  0
    9.7167   44.9859   31.7145 C   0  0  0  0  0  0  0  0  0  0  0  0
    9.2958   46.3065   31.1225 C   0  0  0  0  0  0  0  0  0  0  0  0
    7.9591   46.7248   31.2083 C   0  0  0  0  0  0  0  0  0  0  0  0
   10.2422   47.1503   30.5210 C   0  0  0  0  0  0  0  0  0  0  0  0
    7.5701   47.9613   30.6846 C   0  0  0  0  0  0  0  0  0  0  0  0
    9.8529   48.3865   29.9977 C   0  0  0  0  0  0  0  0  0  0  0  0
    8.5186   48.8029   30.0724 C   0  0  0  0  0  0  0  0  0  0  0  0
    8.1788   50.0520   29.5320 O   0  0  0  0  0  0  0  0  0  0  0  0
    6.8646   50.5999   29.5386 C   0  0  0  0  0  0  0  0  0  0  0  0
    8.8068   40.1904   34.2085 O   0  0  0  0  0  0  0  0  0  0  0  0
   11.2361   40.7921   33.3660 O   0  0  0  0  0  0  0  0  0  0  0  0
   10.9129   40.6859   31.9933 C   0  0  0  0  0  0  0  0  0  0  0  0
   11.5160   39.3780   31.4396 C   0  0  0  0  0  0  0  0  0  0  0  0
   12.7467   39.0861   32.0743 O   0  0  0  0  0  0  0  0  0  0  0  0
   10.6044   38.1871   31.6669 C   0  0  0  0  0  0  0  0  0  0  0  0
   12.9344   37.6796   32.0283 C   0  0  0  0  0  0  0  0  0  0  0  0
    9.6377   38.0919   30.6487 O   0  0  0  0  0  0  0  0  0  0  0  0
   11.5760   37.0133   31.7057 C   0  0  0  0  0  0  0  0  0  0  0  0
   13.4909   37.2180   33.3233 N   0  0  0  0  0  0  0  0  0  0  0  0
   11.6234   36.3374   30.4685 O   0  0  0  0  0  0  0  0  0  0  0  0
   14.4764   36.3273   33.5727 C   0  0  0  0  0  0  0  0  0  0  0  0
   13.1182   37.6317   34.5686 C   0  0  0  0  0  0  0  0  0  0  0  0
   15.2065   35.6139   32.6738 N   0  0  0  0  0  0  0  0  0  0  0  0
   14.6735   36.2276   34.9181 C   0  0  0  0  0  0  0  0  0  0  0  0
   13.8227   37.0458   35.5781 N   0  0  0  0  0  0  0  0  0  0  0  0
   16.1637   34.7593   33.1547 C   0  0  0  0  0  0  0  0  0  0  0  0
   15.6516   35.3493   35.4130 C   0  0  0  0  0  0  0  0  0  0  0  0
   16.3792   34.6309   34.5042 N   0  0  0  0  0  0  0  0  0  0  0  0
   15.9002   35.1934   36.8089 N   0  0  0  0  0  0  0  0  0  0  0  0
    9.0439   45.4765   33.7207 H   0  0  0  0  0  0  0  0  0  0  0  0
   11.1825   46.1618   34.5226 H   0  0  0  0  0  0  0  0  0  0  0  0
   11.9530   45.6973   33.0809 H   0  0  0  0  0  0  0  0  0  0  0  0
   10.6332   44.6116   31.2058 H   0  0  0  0  0  0  0  0  0  0  0  0
    8.9162   44.2367   31.5250 H   0  0  0  0  0  0  0  0  0  0  0  0
    7.2183   46.0927   31.6825 H   0  0  0  0  0  0  0  0  0  0  0  0
   11.2816   46.8523   30.4590 H   0  0  0  0  0  0  0  0  0  0  0  0
    6.5320   48.2540   30.7632 H   0  0  0  0  0  0  0  0  0  0  0  0
   10.5927   49.0264   29.5335 H   0  0  0  0  0  0  0  0  0  0  0  0
    6.5090   50.7265   30.5830 H   0  0  0  0  0  0  0  0  0  0  0  0
    6.8837   51.5940   29.0469 H   0  0  0  0  0  0  0  0  0  0  0  0
    6.1723   49.9382   28.9764 H   0  0  0  0  0  0  0  0  0  0  0  0
   11.3848   41.5429   31.4667 H   0  0  0  0  0  0  0  0  0  0  0  0
    9.8228   40.7220   31.7573 H   0  0  0  0  0  0  0  0  0  0  0  0
   11.6982   39.5021   30.3471 H   0  0  0  0  0  0  0  0  0  0  0  0
   10.1091   38.2773   32.6628 H   0  0  0  0  0  0  0  0  0  0  0  0
   13.6670   37.4554   31.2212 H   0  0  0  0  0  0  0  0  0  0  0  0
    8.9779   37.4159   30.9531 H   0  0  0  0  0  0  0  0  0  0  0  0
   11.2860   36.3045   32.5177 H   0  0  0  0  0  0  0  0  0  0  0  0
   10.8690   35.6921   30.4658 H   0  0  0  0  0  0  0  0  0  0  0  0
   12.3356   38.3588   34.7441 H   0  0  0  0  0  0  0  0  0  0  0  0
   16.7571   34.1787   32.4620 H   0  0  0  0  0  0  0  0  0  0  0  0
   16.6360   34.5315   37.1415 H   0  0  0  0  0  0  0  0  0  0  0  0
   15.3530   35.7358   37.5137 H   0  0  0  0  0  0  0  0  0  0  0  0
  1  2  2  0
  1  3  1  0
  3  4  1  0
  4  5  1  0
  6  1  1  0
  7  6  1  0
  6  8  1  0
  8  9  1  0
  9 10  2  0
 11  9  1  0
 10 12  1  0
 13 11  2  0
 12 14  2  0
 14 13  1  0
 14 15  1  0
 15 16  1  0
  4 17  2  0
  4 18  1  0
 19 18  1  0
 19 20  1  0
 20 21  1  0
 20 22  1  0
 21 23  1  0
 22 24  1  0
 22 25  1  0
 25 23  1  0
 23 26  1  0
 25 27  1  0
 28 26  1  0
 29 26  1  0
 30 28  2  0
 28 31  1  0
 32 29  2  0
 33 30  1  0
 31 34  2  0
 31 32  1  0
 35 33  2  0
 35 34  1  0
 34 36  1  0
  6 37  1  1
  7 38  1  0
  7 39  1  0
  8 40  1  0
  8 41  1  0
 10 42  1  0
 11 43  1  0
 12 44  1  0
 13 45  1  0
 16 46  1  0
 16 47  1  0
 16 48  1  0
 19 49  1  0
 19 50  1  0
 20 51  1  0
 22 52  1  0
 23 53  1  0
 24 54  1  0
 25 55  1  0
 27 56  1  0
 29 57  1  0
 33 58  1  0
 36 59  1  0
 36 60  1  0
M  CHG  1   5  -1
M  END
>  <EmbedRMS>  (104) 
0.08942913218015038

$$$$

     RDKit          3D

 60 63  0  0  0  0  0  0  0  0999 V2000
   10.2875   43.7724   33.7999 C   0  0  0  0  0  0  0  0  0  0  0  0
   11.4101   43.5905   34.3569 O   0  0  0  0  0  0  0  0  0  0  0  0
    9.3639   42.7340   33.7096 O   0  0  0  0  0  0  0  0  0  0  0  0
    9.8851   41.2352   34.2865 P   0  0  0  0  0  5  0  0  0  0  0  0
   10.3675   41.4677   35.8765 O   0  0  0  0  0  1  0  0  0  0  0  0
    9.9623   45.1043   33.2247 C   0  0  1  0  0  0  0  0  0  0  0  0
   11.0639   46.0310   33.4993 N   0  0  0  0  0  0  0  0  0  0  0  0
    9.6879   44.9761   31.7098 C   0  0  0  0  0  0  0  0  0  0  0  0
    9.2401   46.2842   31.1099 C   0  0  0  0  0  0  0  0  0  0  0  0
    7.9147   46.7163   31.2691 C   0  0  0  0  0  0  0  0  0  0  0  0
   10.1505   47.1004   30.4206 C   0  0  0  0  0  0  0  0  0  0  0  0
    7.5030   47.9407   30.7354 C   0  0  0  0  0  0  0  0  0  0  0  0
    9.7383   48.3253   29.8874 C   0  0  0  0  0  0  0  0  0  0  0  0
    8.4060   48.7543   30.0415 C   0  0  0  0  0  0  0  0  0  0  0  0
    7.9437   49.9740   29.5254 O   0  0  0  0  0  0  0  0  0  0  0  0
    8.7503   50.8979   28.8020 C   0  0  0  0  0  0  0  0  0  0  0  0
    8.8082   40.1917   34.2097 O   0  0  0  0  0  0  0  0  0  0  0  0
   11.2365   40.7935   33.3685 O   0  0  0  0  0  0  0  0  0  0  0  0
   10.9140   40.6909   31.9960 C   0  0  0  0  0  0  0  0  0  0  0  0
   11.5263   39.3906   31.4378 C   0  0  0  0  0  0  0  0  0  0  0  0
   12.7501   39.0923   32.0844 O   0  0  0  0  0  0  0  0  0  0  0  0
   10.6119   38.1920   31.6452 C   0  0  0  0  0  0  0  0  0  0  0  0
   12.9427   37.6859   32.0296 C   0  0  0  0  0  0  0  0  0  0  0  0
    9.6069   38.0860   30.6601 O   0  0  0  0  0  0  0  0  0  0  0  0
   11.5844   37.0190   31.6880 C   0  0  0  0  0  0  0  0  0  0  0  0
   13.4898   37.2166   33.3250 N   0  0  0  0  0  0  0  0  0  0  0  0
   11.6202   36.3066   30.4694 O   0  0  0  0  0  0  0  0  0  0  0  0
   14.4758   36.3265   33.5738 C   0  0  0  0  0  0  0  0  0  0  0  0
   13.1175   37.6309   34.5699 C   0  0  0  0  0  0  0  0  0  0  0  0
   15.2064   35.6140   32.6745 N   0  0  0  0  0  0  0  0  0  0  0  0
   14.6731   36.2268   34.9190 C   0  0  0  0  0  0  0  0  0  0  0  0
   13.8224   37.0450   35.5792 N   0  0  0  0  0  0  0  0  0  0  0  0
   16.1639   34.7596   33.1550 C   0  0  0  0  0  0  0  0  0  0  0  0
   15.6517   35.3489   35.4135 C   0  0  0  0  0  0  0  0  0  0  0  0
   16.3794   34.6310   34.5045 N   0  0  0  0  0  0  0  0  0  0  0  0
   15.9006   35.1931   36.8093 N   0  0  0  0  0  0  0  0  0  0  0  0
    9.0442   45.4725   33.7343 H   0  0  0  0  0  0  0  0  0  0  0  0
   11.8658   45.8305   32.8571 H   0  0  0  0  0  0  0  0  0  0  0  0
   10.7422   47.0072   33.3068 H   0  0  0  0  0  0  0  0  0  0  0  0
    8.8910   44.2190   31.5376 H   0  0  0  0  0  0  0  0  0  0  0  0
   10.5978   44.6025   31.1890 H   0  0  0  0  0  0  0  0  0  0  0  0
    7.2012   46.1051   31.8080 H   0  0  0  0  0  0  0  0  0  0  0  0
   11.1811   46.7904   30.2992 H   0  0  0  0  0  0  0  0  0  0  0  0
    6.4767   48.2607   30.8637 H   0  0  0  0  0  0  0  0  0  0  0  0
   10.4627   48.9310   29.3604 H   0  0  0  0  0  0  0  0  0  0  0  0
    8.1310   51.7720   28.5143 H   0  0  0  0  0  0  0  0  0  0  0  0
    9.5900   51.2507   29.4373 H   0  0  0  0  0  0  0  0  0  0  0  0
    9.1429   50.4210   27.8792 H   0  0  0  0  0  0  0  0  0  0  0  0
   11.3792   41.5541   31.4733 H   0  0  0  0  0  0  0  0  0  0  0  0
    9.8236   40.7196   31.7601 H   0  0  0  0  0  0  0  0  0  0  0  0
   11.7314   39.5346   30.3524 H   0  0  0  0  0  0  0  0  0  0  0  0
   10.1210   38.2685   32.6412 H   0  0  0  0  0  0  0  0  0  0  0  0
   13.6880   37.4718   31.2319 H   0  0  0  0  0  0  0  0  0  0  0  0
   10.0256   38.1757   29.7656 H   0  0  0  0  0  0  0  0  0  0  0  0
   11.2795   36.3128   32.4916 H   0  0  0  0  0  0  0  0  0  0  0  0
   11.9871   36.9103   29.7715 H   0  0  0  0  0  0  0  0  0  0  0  0
   12.3365   38.3597   34.7455 H   0  0  0  0  0  0  0  0  0  0  0  0
   16.7575   34.1795   32.4621 H   0  0  0  0  0  0  0  0  0  0  0  0
   15.3532   35.7351   37.5143 H   0  0  0  0  0  0  0  0  0  0  0  0
   16.6368   34.5316   37.1417 H   0  0  0  0  0  0  0  0  0  0  0  0
  1  2  2  0
  1  3  1  0
  3  4  1  0
  4  5  1  0
  6  1  1  0
  7  6  1  0
  6  8  1  0
  8  9  1  0
  9 10  2  0
 11  9  1  0
 10 12  1  0
 13 11  2  0
 12 14  2  0
 14 13  1  0
 14 15  1  0
 15 16  1  0
  4 17  2  0
  4 18  1  0
 19 18  1  0
 19 20  1  0
 20 21  1  0
 20 22  1  0
 21 23  1  0
 22 24  1  0
 22 25  1  0
 25 23  1  0
 23 26  1  0
 25 27  1  0
 28 26  1  0
 29 26  1  0
 30 28  2  0
 28 31  1  0
 32 29  2  0
 33 30  1  0
 31 34  2  0
 31 32  1  0
 35 33  2  0
 35 34  1  0
 34 36  1  0
  6 37  1  1
  7 38  1  0
  7 39  1  0
  8 40  1  0
  8 41  1  0
 10 42  1  0
 11 43  1  0
 12 44  1  0
 13 45  1  0
 16 46  1  0
 16 47  1  0
 16 48  1  0
 19 49  1  0
 19 50  1  0
 20 51  1  0
 22 52  1  0
 23 53  1  0
 24 54  1  0
 25 55  1  0
 27 56  1  0
 29 57  1  0
 33 58  1  0
 36 59  1  0
 36 60  1  0
M  CHG  1   5  -1
M  END
>  <EmbedRMS>  (105) 
0.0866091556914288

$$$$

     RDKit          3D

 60 63  0  0  0  0  0  0  0  0999 V2000
   10.2880   43.7718   33.8023 C   0  0  0  0  0  0  0  0  0  0  0  0
   11.4130   43.5866   34.3535 O   0  0  0  0  0  0  0  0  0  0  0  0
    9.3636   42.7342   33.7120 O   0  0  0  0  0  0  0  0  0  0  0  0
    9.8854   41.2345   34.2862 P   0  0  0  0  0  5  0  0  0  0  0  0
   10.3675   41.4662   35.8764 O   0  0  0  0  0  1  0  0  0  0  0  0
    9.9689   45.1017   33.2140 C   0  0  1  0  0  0  0  0  0  0  0  0
   11.0575   46.0377   33.5062 N   0  0  0  0  0  0  0  0  0  0  0  0
    9.7792   44.9512   31.6901 C   0  0  0  0  0  0  0  0  0  0  0  0
    9.2578   46.2168   31.0578 C   0  0  0  0  0  0  0  0  0  0  0  0
   10.1238   47.0772   30.3648 C   0  0  0  0  0  0  0  0  0  0  0  0
    7.9028   46.5601   31.1809 C   0  0  0  0  0  0  0  0  0  0  0  0
    9.6401   48.2594   29.7963 C   0  0  0  0  0  0  0  0  0  0  0  0
    7.4198   47.7419   30.6121 C   0  0  0  0  0  0  0  0  0  0  0  0
    8.2792   48.6001   29.9166 C   0  0  0  0  0  0  0  0  0  0  0  0
    7.7457   49.7742   29.3646 O   0  0  0  0  0  0  0  0  0  0  0  0
    8.5020   50.7351   28.6352 C   0  0  0  0  0  0  0  0  0  0  0  0
    8.8083   40.1912   34.2087 O   0  0  0  0  0  0  0  0  0  0  0  0
   11.2379   40.7933   33.3684 O   0  0  0  0  0  0  0  0  0  0  0  0
   10.9178   40.6907   31.9950 C   0  0  0  0  0  0  0  0  0  0  0  0
   11.5164   39.3810   31.4402 C   0  0  0  0  0  0  0  0  0  0  0  0
   12.7472   39.0869   32.0739 O   0  0  0  0  0  0  0  0  0  0  0  0
   10.6028   38.1895   31.6667 C   0  0  0  0  0  0  0  0  0  0  0  0
   12.9333   37.6803   32.0281 C   0  0  0  0  0  0  0  0  0  0  0  0
    9.6395   38.0780   30.6455 O   0  0  0  0  0  0  0  0  0  0  0  0
   11.5738   37.0159   31.7058 C   0  0  0  0  0  0  0  0  0  0  0  0
   13.4903   37.2181   33.3231 N   0  0  0  0  0  0  0  0  0  0  0  0
   11.6211   36.3379   30.4696 O   0  0  0  0  0  0  0  0  0  0  0  0
   14.4760   36.3275   33.5724 C   0  0  0  0  0  0  0  0  0  0  0  0
   13.1178   37.6318   34.5684 C   0  0  0  0  0  0  0  0  0  0  0  0
   15.2062   35.6140   32.6736 N   0  0  0  0  0  0  0  0  0  0  0  0
   14.6733   36.2278   34.9179 C   0  0  0  0  0  0  0  0  0  0  0  0
   13.8225   37.0459   35.5779 N   0  0  0  0  0  0  0  0  0  0  0  0
   16.1635   34.7595   33.1545 C   0  0  0  0  0  0  0  0  0  0  0  0
   15.6515   35.3494   35.4128 C   0  0  0  0  0  0  0  0  0  0  0  0
   16.3790   34.6311   34.5040 N   0  0  0  0  0  0  0  0  0  0  0  0
   15.9001   35.1935   36.8087 N   0  0  0  0  0  0  0  0  0  0  0  0
    9.0244   45.4684   33.6760 H   0  0  0  0  0  0  0  0  0  0  0  0
   10.7938   46.9817   33.1430 H   0  0  0  0  0  0  0  0  0  0  0  0
   11.1203   46.1576   34.5442 H   0  0  0  0  0  0  0  0  0  0  0  0
   10.7431   44.6513   31.2213 H   0  0  0  0  0  0  0  0  0  0  0  0
    9.0538   44.1344   31.4785 H   0  0  0  0  0  0  0  0  0  0  0  0
   11.1750   46.8352   30.2680 H   0  0  0  0  0  0  0  0  0  0  0  0
    7.2213   45.9123   31.7185 H   0  0  0  0  0  0  0  0  0  0  0  0
   10.3320   48.9013   29.2683 H   0  0  0  0  0  0  0  0  0  0  0  0
    6.3717   47.9935   30.7136 H   0  0  0  0  0  0  0  0  0  0  0  0
    7.8308   51.5587   28.3166 H   0  0  0  0  0  0  0  0  0  0  0  0
    9.3033   51.1577   29.2774 H   0  0  0  0  0  0  0  0  0  0  0  0
    8.9439   50.2664   27.7306 H   0  0  0  0  0  0  0  0  0  0  0  0
    9.8296   40.7404   31.7563 H   0  0  0  0  0  0  0  0  0  0  0  0
   11.3977   41.5453   31.4718 H   0  0  0  0  0  0  0  0  0  0  0  0
   11.6977   39.5052   30.3476 H   0  0  0  0  0  0  0  0  0  0  0  0
   10.1084   38.2634   32.6648 H   0  0  0  0  0  0  0  0  0  0  0  0
   13.6653   37.4552   31.2207 H   0  0  0  0  0  0  0  0  0  0  0  0
    8.8967   38.6908   30.8844 H   0  0  0  0  0  0  0  0  0  0  0  0
   11.2845   36.3065   32.5176 H   0  0  0  0  0  0  0  0  0  0  0  0
   10.8523   35.7098   30.4591 H   0  0  0  0  0  0  0  0  0  0  0  0
   12.3353   38.3589   34.7441 H   0  0  0  0  0  0  0  0  0  0  0  0
   16.7569   34.1789   32.4618 H   0  0  0  0  0  0  0  0  0  0  0  0
   15.3529   35.7359   37.5136 H   0  0  0  0  0  0  0  0  0  0  0  0
   16.6359   34.5317   37.1412 H   0  0  0  0  0  0  0  0  0  0  0  0
  1  2  2  0
  1  3  1  0
  3  4  1  0
  4  5  1  0
  6  1  1  0
  7  6  1  0
  6  8  1  0
  8  9  1  0
  9 10  2  0
 11  9  1  0
 10 12  1  0
 13 11  2  0
 12 14  2  0
 14 13  1  0
 14 15  1  0
 15 16  1  0
  4 17  2  0
  4 18  1  0
 19 18  1  0
 19 20  1  0
 20 21  1  0
 20 22  1  0
 21 23  1  0
 22 24  1  0
 22 25  1  0
 25 23  1  0
 23 26  1  0
 25 27  1  0
 28 26  1  0
 29 26  1  0
 30 28  2  0
 28 31  1  0
 32 29  2  0
 33 30  1  0
 31 34  2  0
 31 32  1  0
 35 33  2  0
 35 34  1  0
 34 36  1  0
  6 37  1  1
  7 38  1  0
  7 39  1  0
  8 40  1  0
  8 41  1  0
 10 42  1  0
 11 43  1  0
 12 44  1  0
 13 45  1  0
 16 46  1  0
 16 47  1  0
 16 48  1  0
 19 49  1  0
 19 50  1  0
 20 51  1  0
 22 52  1  0
 23 53  1  0
 24 54  1  0
 25 55  1  0
 27 56  1  0
 29 57  1  0
 33 58  1  0
 36 59  1  0
 36 60  1  0
M  CHG  1   5  -1
M  END
>  <EmbedRMS>  (106) 
0.08938133726953312

$$$$

     RDKit          3D

 60 63  0  0  0  0  0  0  0  0999 V2000
   10.2941   43.7720   33.7964 C   0  0  0  0  0  0  0  0  0  0  0  0
   11.4140   43.5898   34.3580 O   0  0  0  0  0  0  0  0  0  0  0  0
    9.3673   42.7357   33.7086 O   0  0  0  0  0  0  0  0  0  0  0  0
    9.8872   41.2359   34.2845 P   0  0  0  0  0  5  0  0  0  0  0  0
   10.3696   41.4673   35.8747 O   0  0  0  0  0  1  0  0  0  0  0  0
    9.9759   45.1033   33.2101 C   0  0  1  0  0  0  0  0  0  0  0  0
   11.0440   46.0544   33.5250 N   0  0  0  0  0  0  0  0  0  0  0  0
    9.7482   45.0013   31.6781 C   0  0  0  0  0  0  0  0  0  0  0  0
   10.9937   45.2145   30.8391 C   0  0  0  0  0  0  0  0  0  0  0  0
   12.1331   44.4122   31.0151 C   0  0  0  0  0  0  0  0  0  0  0  0
   11.0098   46.2072   29.8447 C   0  0  0  0  0  0  0  0  0  0  0  0
   13.2672   44.6027   30.2208 C   0  0  0  0  0  0  0  0  0  0  0  0
   12.1441   46.3975   29.0506 C   0  0  0  0  0  0  0  0  0  0  0  0
   13.2797   45.6007   29.2291 C   0  0  0  0  0  0  0  0  0  0  0  0
   14.3924   45.8307   28.4063 O   0  0  0  0  0  0  0  0  0  0  0  0
   15.6101   45.0962   28.4778 C   0  0  0  0  0  0  0  0  0  0  0  0
    8.8094   40.1931   34.2079 O   0  0  0  0  0  0  0  0  0  0  0  0
   11.2382   40.7957   33.3638 O   0  0  0  0  0  0  0  0  0  0  0  0
   10.9106   40.6821   31.9926 C   0  0  0  0  0  0  0  0  0  0  0  0
   11.5141   39.3760   31.4401 C   0  0  0  0  0  0  0  0  0  0  0  0
   12.7451   39.0854   32.0745 O   0  0  0  0  0  0  0  0  0  0  0  0
   10.6021   38.1850   31.6671 C   0  0  0  0  0  0  0  0  0  0  0  0
   12.9333   37.6793   32.0282 C   0  0  0  0  0  0  0  0  0  0  0  0
    9.6390   38.0740   30.6458 O   0  0  0  0  0  0  0  0  0  0  0  0
   11.5746   37.0131   31.7055 C   0  0  0  0  0  0  0  0  0  0  0  0
   13.4904   37.2177   33.3232 N   0  0  0  0  0  0  0  0  0  0  0  0
   11.6223   36.3366   30.4687 O   0  0  0  0  0  0  0  0  0  0  0  0
   14.4762   36.3273   33.5725 C   0  0  0  0  0  0  0  0  0  0  0  0
   13.1179   37.6316   34.5685 C   0  0  0  0  0  0  0  0  0  0  0  0
   15.2063   35.6139   32.6737 N   0  0  0  0  0  0  0  0  0  0  0  0
   14.6734   36.2277   34.9180 C   0  0  0  0  0  0  0  0  0  0  0  0
   13.8226   37.0459   35.5780 N   0  0  0  0  0  0  0  0  0  0  0  0
   16.1636   34.7594   33.1546 C   0  0  0  0  0  0  0  0  0  0  0  0
   15.6516   35.3494   35.4129 C   0  0  0  0  0  0  0  0  0  0  0  0
   16.3791   34.6311   34.5041 N   0  0  0  0  0  0  0  0  0  0  0  0
   15.9002   35.1935   36.8088 N   0  0  0  0  0  0  0  0  0  0  0  0
    9.0288   45.4512   33.6817 H   0  0  0  0  0  0  0  0  0  0  0  0
   10.7869   46.9815   33.1137 H   0  0  0  0  0  0  0  0  0  0  0  0
   11.0606   46.2025   34.5610 H   0  0  0  0  0  0  0  0  0  0  0  0
    9.3003   44.0201   31.4078 H   0  0  0  0  0  0  0  0  0  0  0  0
    8.9856   45.7633   31.4043 H   0  0  0  0  0  0  0  0  0  0  0  0
   12.1557   43.6483   31.7760 H   0  0  0  0  0  0  0  0  0  0  0  0
   10.1440   46.8366   29.6806 H   0  0  0  0  0  0  0  0  0  0  0  0
   14.1283   43.9700   30.3873 H   0  0  0  0  0  0  0  0  0  0  0  0
   12.1400   47.1682   28.2901 H   0  0  0  0  0  0  0  0  0  0  0  0
   16.0704   45.2168   29.4812 H   0  0  0  0  0  0  0  0  0  0  0  0
   15.4207   44.0218   28.2706 H   0  0  0  0  0  0  0  0  0  0  0  0
   16.3142   45.4864   27.7148 H   0  0  0  0  0  0  0  0  0  0  0  0
   11.3815   41.5282   31.4557 H   0  0  0  0  0  0  0  0  0  0  0  0
    9.8211   40.7258   31.7592 H   0  0  0  0  0  0  0  0  0  0  0  0
   11.6957   39.4992   30.3473 H   0  0  0  0  0  0  0  0  0  0  0  0
   10.1082   38.2578   32.6658 H   0  0  0  0  0  0  0  0  0  0  0  0
   13.6658   37.4554   31.2210 H   0  0  0  0  0  0  0  0  0  0  0  0
    8.8912   38.6788   30.8900 H   0  0  0  0  0  0  0  0  0  0  0  0
   11.2863   36.3026   32.5167 H   0  0  0  0  0  0  0  0  0  0  0  0
   10.8547   35.7071   30.4579 H   0  0  0  0  0  0  0  0  0  0  0  0
   12.3353   38.3587   34.7441 H   0  0  0  0  0  0  0  0  0  0  0  0
   16.7570   34.1788   32.4619 H   0  0  0  0  0  0  0  0  0  0  0  0
   16.6360   34.5316   37.1414 H   0  0  0  0  0  0  0  0  0  0  0  0
   15.3530   35.7358   37.5137 H   0  0  0  0  0  0  0  0  0  0  0  0
  1  2  2  0
  1  3  1  0
  3  4  1  0
  4  5  1  0
  6  1  1  0
  7  6  1  0
  6  8  1  0
  8  9  1  0
  9 10  2  0
 11  9  1  0
 10 12  1  0
 13 11  2  0
 12 14  2  0
 14 13  1  0
 14 15  1  0
 15 16  1  0
  4 17  2  0
  4 18  1  0
 19 18  1  0
 19 20  1  0
 20 21  1  0
 20 22  1  0
 21 23  1  0
 22 24  1  0
 22 25  1  0
 25 23  1  0
 23 26  1  0
 25 27  1  0
 28 26  1  0
 29 26  1  0
 30 28  2  0
 28 31  1  0
 32 29  2  0
 33 30  1  0
 31 34  2  0
 31 32  1  0
 35 33  2  0
 35 34  1  0
 34 36  1  0
  6 37  1  1
  7 38  1  0
  7 39  1  0
  8 40  1  0
  8 41  1  0
 10 42  1  0
 11 43  1  0
 12 44  1  0
 13 45  1  0
 16 46  1  0
 16 47  1  0
 16 48  1  0
 19 49  1  0
 19 50  1  0
 20 51  1  0
 22 52  1  0
 23 53  1  0
 24 54  1  0
 25 55  1  0
 27 56  1  0
 29 57  1  0
 33 58  1  0
 36 59  1  0
 36 60  1  0
M  CHG  1   5  -1
M  END
>  <EmbedRMS>  (107) 
0.0902277974077827

$$$$

     RDKit          3D

 60 63  0  0  0  0  0  0  0  0999 V2000
   10.2895   43.7708   33.7894 C   0  0  0  0  0  0  0  0  0  0  0  0
   11.4116   43.5887   34.3476 O   0  0  0  0  0  0  0  0  0  0  0  0
    9.3642   42.7334   33.7088 O   0  0  0  0  0  0  0  0  0  0  0  0
    9.8853   41.2350   34.2865 P   0  0  0  0  0  5  0  0  0  0  0  0
   10.3675   41.4685   35.8764 O   0  0  0  0  0  1  0  0  0  0  0  0
    9.9589   45.1132   33.2311 C   0  0  1  0  0  0  0  0  0  0  0  0
   11.0633   46.0340   33.5072 N   0  0  0  0  0  0  0  0  0  0  0  0
    9.6718   45.0599   31.7110 C   0  0  0  0  0  0  0  0  0  0  0  0
    8.4286   44.2720   31.3734 C   0  0  0  0  0  0  0  0  0  0  0  0
    8.5210   43.0827   30.6339 C   0  0  0  0  0  0  0  0  0  0  0  0
    7.1657   44.7220   31.7903 C   0  0  0  0  0  0  0  0  0  0  0  0
    7.3741   42.3388   30.3450 C   0  0  0  0  0  0  0  0  0  0  0  0
    6.0178   43.9791   31.4985 C   0  0  0  0  0  0  0  0  0  0  0  0
    6.1162   42.7752   30.7750 C   0  0  0  0  0  0  0  0  0  0  0  0
    4.9959   41.9908   30.4630 O   0  0  0  0  0  0  0  0  0  0  0  0
    3.6606   42.3114   30.8388 C   0  0  0  0  0  0  0  0  0  0  0  0
    8.8076   40.1923   34.2100 O   0  0  0  0  0  0  0  0  0  0  0  0
   11.2369   40.7910   33.3694 O   0  0  0  0  0  0  0  0  0  0  0  0
   10.9140   40.6869   31.9973 C   0  0  0  0  0  0  0  0  0  0  0  0
   11.5249   39.3871   31.4376 C   0  0  0  0  0  0  0  0  0  0  0  0
   12.7485   39.0880   32.0810 O   0  0  0  0  0  0  0  0  0  0  0  0
   10.6101   38.1904   31.6471 C   0  0  0  0  0  0  0  0  0  0  0  0
   12.9349   37.6809   32.0293 C   0  0  0  0  0  0  0  0  0  0  0  0
    9.6127   38.0875   30.6546 O   0  0  0  0  0  0  0  0  0  0  0  0
   11.5769   37.0131   31.7023 C   0  0  0  0  0  0  0  0  0  0  0  0
   13.4901   37.2164   33.3237 N   0  0  0  0  0  0  0  0  0  0  0  0
   11.6324   36.3233   30.4737 O   0  0  0  0  0  0  0  0  0  0  0  0
   14.4763   36.3265   33.5728 C   0  0  0  0  0  0  0  0  0  0  0  0
   13.1179   37.6306   34.5689 C   0  0  0  0  0  0  0  0  0  0  0  0
   15.2065   35.6135   32.6739 N   0  0  0  0  0  0  0  0  0  0  0  0
   14.6736   36.2272   34.9182 C   0  0  0  0  0  0  0  0  0  0  0  0
   13.8228   37.0452   35.5784 N   0  0  0  0  0  0  0  0  0  0  0  0
   16.1640   34.7592   33.1547 C   0  0  0  0  0  0  0  0  0  0  0  0
   15.6519   35.3491   35.4131 C   0  0  0  0  0  0  0  0  0  0  0  0
   16.3795   34.6309   34.5042 N   0  0  0  0  0  0  0  0  0  0  0  0
   15.9005   35.1933   36.8089 N   0  0  0  0  0  0  0  0  0  0  0  0
    9.0574   45.4858   33.7647 H   0  0  0  0  0  0  0  0  0  0  0  0
   10.7583   47.0044   33.2626 H   0  0  0  0  0  0  0  0  0  0  0  0
   11.8786   45.8017   32.8927 H   0  0  0  0  0  0  0  0  0  0  0  0
    9.5342   46.0953   31.3302 H   0  0  0  0  0  0  0  0  0  0  0  0
   10.5565   44.6392   31.1830 H   0  0  0  0  0  0  0  0  0  0  0  0
    9.4808   42.7283   30.2817 H   0  0  0  0  0  0  0  0  0  0  0  0
    7.0697   45.6469   32.3452 H   0  0  0  0  0  0  0  0  0  0  0  0
    7.4634   41.4176   29.7831 H   0  0  0  0  0  0  0  0  0  0  0  0
    5.0607   44.3487   31.8399 H   0  0  0  0  0  0  0  0  0  0  0  0
    3.5766   42.3603   31.9451 H   0  0  0  0  0  0  0  0  0  0  0  0
    3.3597   43.2812   30.3892 H   0  0  0  0  0  0  0  0  0  0  0  0
    2.9789   41.5201   30.4654 H   0  0  0  0  0  0  0  0  0  0  0  0
   11.3781   41.5498   31.4739 H   0  0  0  0  0  0  0  0  0  0  0  0
    9.8232   40.7084   31.7650 H   0  0  0  0  0  0  0  0  0  0  0  0
   11.7267   39.5299   30.3514 H   0  0  0  0  0  0  0  0  0  0  0  0
   10.1120   38.2718   32.6391 H   0  0  0  0  0  0  0  0  0  0  0  0
   13.6687   37.4596   31.2226 H   0  0  0  0  0  0  0  0  0  0  0  0
   10.0513   38.1133   29.7647 H   0  0  0  0  0  0  0  0  0  0  0  0
   11.2805   36.3124   32.5190 H   0  0  0  0  0  0  0  0  0  0  0  0
   10.8624   35.6966   30.4637 H   0  0  0  0  0  0  0  0  0  0  0  0
   12.3356   38.3580   34.7445 H   0  0  0  0  0  0  0  0  0  0  0  0
   16.7575   34.1787   32.4619 H   0  0  0  0  0  0  0  0  0  0  0  0
   16.6364   34.5315   37.1415 H   0  0  0  0  0  0  0  0  0  0  0  0
   15.3531   35.7355   37.5138 H   0  0  0  0  0  0  0  0  0  0  0  0
  1  2  2  0
  1  3  1  0
  3  4  1  0
  4  5  1  0
  6  1  1  0
  7  6  1  0
  6  8  1  0
  8  9  1  0
  9 10  2  0
 11  9  1  0
 10 12  1  0
 13 11  2  0
 12 14  2  0
 14 13  1  0
 14 15  1  0
 15 16  1  0
  4 17  2  0
  4 18  1  0
 19 18  1  0
 19 20  1  0
 20 21  1  0
 20 22  1  0
 21 23  1  0
 22 24  1  0
 22 25  1  0
 25 23  1  0
 23 26  1  0
 25 27  1  0
 28 26  1  0
 29 26  1  0
 30 28  2  0
 28 31  1  0
 32 29  2  0
 33 30  1  0
 31 34  2  0
 31 32  1  0
 35 33  2  0
 35 34  1  0
 34 36  1  0
  6 37  1  1
  7 38  1  0
  7 39  1  0
  8 40  1  0
  8 41  1  0
 10 42  1  0
 11 43  1  0
 12 44  1  0
 13 45  1  0
 16 46  1  0
 16 47  1  0
 16 48  1  0
 19 49  1  0
 19 50  1  0
 20 51  1  0
 22 52  1  0
 23 53  1  0
 24 54  1  0
 25 55  1  0
 27 56  1  0
 29 57  1  0
 33 58  1  0
 36 59  1  0
 36 60  1  0
M  CHG  1   5  -1
M  END
>  <EmbedRMS>  (108) 
0.08835440068752447

$$$$

     RDKit          3D

 60 63  0  0  0  0  0  0  0  0999 V2000
   10.2876   43.7724   33.7998 C   0  0  0  0  0  0  0  0  0  0  0  0
   11.4101   43.5905   34.3570 O   0  0  0  0  0  0  0  0  0  0  0  0
    9.3642   42.7338   33.7091 O   0  0  0  0  0  0  0  0  0  0  0  0
    9.8858   41.2348   34.2850 P   0  0  0  0  0  5  0  0  0  0  0  0
   10.3686   41.4671   35.8751 O   0  0  0  0  0  1  0  0  0  0  0  0
    9.9623   45.1043   33.2248 C   0  0  1  0  0  0  0  0  0  0  0  0
   11.0639   46.0310   33.4993 N   0  0  0  0  0  0  0  0  0  0  0  0
    9.6875   44.9763   31.7100 C   0  0  0  0  0  0  0  0  0  0  0  0
    9.2405   46.2848   31.1101 C   0  0  0  0  0  0  0  0  0  0  0  0
   10.1509   47.0993   30.4192 C   0  0  0  0  0  0  0  0  0  0  0  0
    7.9158   46.7187   31.2709 C   0  0  0  0  0  0  0  0  0  0  0  0
    9.7380   48.3237   29.8865 C   0  0  0  0  0  0  0  0  0  0  0  0
    7.5031   47.9434   30.7377 C   0  0  0  0  0  0  0  0  0  0  0  0
    8.4156   48.7566   30.0385 C   0  0  0  0  0  0  0  0  0  0  0  0
    8.0511   49.9931   29.4854 O   0  0  0  0  0  0  0  0  0  0  0  0
    6.7454   50.5554   29.5647 C   0  0  0  0  0  0  0  0  0  0  0  0
    8.8084   40.1917   34.2091 O   0  0  0  0  0  0  0  0  0  0  0  0
   11.2369   40.7933   33.3656 O   0  0  0  0  0  0  0  0  0  0  0  0
   10.9130   40.6861   31.9932 C   0  0  0  0  0  0  0  0  0  0  0  0
   11.5160   39.3781   31.4397 C   0  0  0  0  0  0  0  0  0  0  0  0
   12.7466   39.0861   32.0744 O   0  0  0  0  0  0  0  0  0  0  0  0
   10.6044   38.1871   31.6670 C   0  0  0  0  0  0  0  0  0  0  0  0
   12.9343   37.6797   32.0283 C   0  0  0  0  0  0  0  0  0  0  0  0
    9.6377   38.0920   30.6487 O   0  0  0  0  0  0  0  0  0  0  0  0
   11.5760   37.0133   31.7057 C   0  0  0  0  0  0  0  0  0  0  0  0
   13.4909   37.2180   33.3233 N   0  0  0  0  0  0  0  0  0  0  0  0
   11.6234   36.3374   30.4685 O   0  0  0  0  0  0  0  0  0  0  0  0
   14.4764   36.3273   33.5727 C   0  0  0  0  0  0  0  0  0  0  0  0
   13.1182   37.6317   34.5686 C   0  0  0  0  0  0  0  0  0  0  0  0
   15.2065   35.6139   32.6738 N   0  0  0  0  0  0  0  0  0  0  0  0
   14.6735   36.2276   34.9181 C   0  0  0  0  0  0  0  0  0  0  0  0
   13.8227   37.0458   35.5781 N   0  0  0  0  0  0  0  0  0  0  0  0
   16.1637   34.7593   33.1547 C   0  0  0  0  0  0  0  0  0  0  0  0
   15.6516   35.3493   35.4130 C   0  0  0  0  0  0  0  0  0  0  0  0
   16.3792   34.6310   34.5042 N   0  0  0  0  0  0  0  0  0  0  0  0
   15.9002   35.1934   36.8089 N   0  0  0  0  0  0  0  0  0  0  0  0
    9.0443   45.4725   33.7347 H   0  0  0  0  0  0  0  0  0  0  0  0
   10.7422   47.0072   33.3070 H   0  0  0  0  0  0  0  0  0  0  0  0
   11.8657   45.8305   32.8569 H   0  0  0  0  0  0  0  0  0  0  0  0
    8.8900   44.2199   31.5380 H   0  0  0  0  0  0  0  0  0  0  0  0
   10.5970   44.6021   31.1891 H   0  0  0  0  0  0  0  0  0  0  0  0
   11.1811   46.7888   30.2960 H   0  0  0  0  0  0  0  0  0  0  0  0
    7.2029   46.1079   31.8113 H   0  0  0  0  0  0  0  0  0  0  0  0
   10.4502   48.9416   29.3544 H   0  0  0  0  0  0  0  0  0  0  0  0
    6.4751   48.2490   30.8764 H   0  0  0  0  0  0  0  0  0  0  0  0
    6.7401   51.5346   29.0437 H   0  0  0  0  0  0  0  0  0  0  0  0
    6.4627   50.7160   30.6265 H   0  0  0  0  0  0  0  0  0  0  0  0
    6.0105   49.8855   29.0703 H   0  0  0  0  0  0  0  0  0  0  0  0
    9.8227   40.7219   31.7578 H   0  0  0  0  0  0  0  0  0  0  0  0
   11.3842   41.5430   31.4658 H   0  0  0  0  0  0  0  0  0  0  0  0
   11.6983   39.5021   30.3471 H   0  0  0  0  0  0  0  0  0  0  0  0
   10.1091   38.2774   32.6628 H   0  0  0  0  0  0  0  0  0  0  0  0
   13.6670   37.4554   31.2213 H   0  0  0  0  0  0  0  0  0  0  0  0
    8.9778   37.4160   30.9532 H   0  0  0  0  0  0  0  0  0  0  0  0
   11.2860   36.3046   32.5178 H   0  0  0  0  0  0  0  0  0  0  0  0
   10.8689   35.6922   30.4658 H   0  0  0  0  0  0  0  0  0  0  0  0
   12.3356   38.3588   34.7441 H   0  0  0  0  0  0  0  0  0  0  0  0
   16.7571   34.1787   32.4620 H   0  0  0  0  0  0  0  0  0  0  0  0
   16.6361   34.5315   37.1414 H   0  0  0  0  0  0  0  0  0  0  0  0
   15.3530   35.7358   37.5137 H   0  0  0  0  0  0  0  0  0  0  0  0
  1  2  2  0
  1  3  1  0
  3  4  1  0
  4  5  1  0
  6  1  1  0
  7  6  1  0
  6  8  1  0
  8  9  1  0
  9 10  2  0
 11  9  1  0
 10 12  1  0
 13 11  2  0
 12 14  2  0
 14 13  1  0
 14 15  1  0
 15 16  1  0
  4 17  2  0
  4 18  1  0
 19 18  1  0
 19 20  1  0
 20 21  1  0
 20 22  1  0
 21 23  1  0
 22 24  1  0
 22 25  1  0
 25 23  1  0
 23 26  1  0
 25 27  1  0
 28 26  1  0
 29 26  1  0
 30 28  2  0
 28 31  1  0
 32 29  2  0
 33 30  1  0
 31 34  2  0
 31 32  1  0
 35 33  2  0
 35 34  1  0
 34 36  1  0
  6 37  1  1
  7 38  1  0
  7 39  1  0
  8 40  1  0
  8 41  1  0
 10 42  1  0
 11 43  1  0
 12 44  1  0
 13 45  1  0
 16 46  1  0
 16 47  1  0
 16 48  1  0
 19 49  1  0
 19 50  1  0
 20 51  1  0
 22 52  1  0
 23 53  1  0
 24 54  1  0
 25 55  1  0
 27 56  1  0
 29 57  1  0
 33 58  1  0
 36 59  1  0
 36 60  1  0
M  CHG  1   5  -1
M  END
>  <EmbedRMS>  (109) 
0.08862857209468938

$$$$

     RDKit          3D

 60 63  0  0  0  0  0  0  0  0999 V2000
   10.2879   43.7719   33.8023 C   0  0  0  0  0  0  0  0  0  0  0  0
   11.4129   43.5865   34.3533 O   0  0  0  0  0  0  0  0  0  0  0  0
    9.3632   42.7344   33.7122 O   0  0  0  0  0  0  0  0  0  0  0  0
    9.8848   41.2347   34.2865 P   0  0  0  0  0  5  0  0  0  0  0  0
   10.3679   41.4664   35.8765 O   0  0  0  0  0  1  0  0  0  0  0  0
    9.9688   45.1018   33.2142 C   0  0  1  0  0  0  0  0  0  0  0  0
   11.0575   46.0377   33.5062 N   0  0  0  0  0  0  0  0  0  0  0  0
    9.7787   44.9516   31.6903 C   0  0  0  0  0  0  0  0  0  0  0  0
    9.2561   46.2170   31.0585 C   0  0  0  0  0  0  0  0  0  0  0  0
    7.9010   46.5599   31.1831 C   0  0  0  0  0  0  0  0  0  0  0  0
   10.1210   47.0777   30.3647 C   0  0  0  0  0  0  0  0  0  0  0  0
    7.4152   47.7414   30.6153 C   0  0  0  0  0  0  0  0  0  0  0  0
    9.6348   48.2589   29.7974 C   0  0  0  0  0  0  0  0  0  0  0  0
    8.2829   48.6017   29.9156 C   0  0  0  0  0  0  0  0  0  0  0  0
    7.8447   49.7981   29.3287 O   0  0  0  0  0  0  0  0  0  0  0  0
    6.5018   50.2696   29.3717 C   0  0  0  0  0  0  0  0  0  0  0  0
    8.8077   40.1915   34.2097 O   0  0  0  0  0  0  0  0  0  0  0  0
   11.2362   40.7933   33.3677 O   0  0  0  0  0  0  0  0  0  0  0  0
   10.9134   40.6894   31.9951 C   0  0  0  0  0  0  0  0  0  0  0  0
   11.5252   39.3880   31.4370 C   0  0  0  0  0  0  0  0  0  0  0  0
   12.7484   39.0901   32.0826 O   0  0  0  0  0  0  0  0  0  0  0  0
   10.6119   38.1897   31.6462 C   0  0  0  0  0  0  0  0  0  0  0  0
   12.9371   37.6835   32.0303 C   0  0  0  0  0  0  0  0  0  0  0  0
    9.6149   38.0841   30.6537 O   0  0  0  0  0  0  0  0  0  0  0  0
   11.5792   37.0141   31.7014 C   0  0  0  0  0  0  0  0  0  0  0  0
   13.4906   37.2173   33.3242 N   0  0  0  0  0  0  0  0  0  0  0  0
   11.6217   36.3256   30.4726 O   0  0  0  0  0  0  0  0  0  0  0  0
   14.4762   36.3268   33.5730 C   0  0  0  0  0  0  0  0  0  0  0  0
   13.1181   37.6310   34.5695 C   0  0  0  0  0  0  0  0  0  0  0  0
   15.2064   35.6139   32.6739 N   0  0  0  0  0  0  0  0  0  0  0  0
   14.6735   36.2270   34.9184 C   0  0  0  0  0  0  0  0  0  0  0  0
   13.8228   37.0451   35.5787 N   0  0  0  0  0  0  0  0  0  0  0  0
   16.1638   34.7594   33.1546 C   0  0  0  0  0  0  0  0  0  0  0  0
   15.6518   35.3489   35.4131 C   0  0  0  0  0  0  0  0  0  0  0  0
   16.3794   34.6308   34.5041 N   0  0  0  0  0  0  0  0  0  0  0  0
   15.9006   35.1931   36.8089 N   0  0  0  0  0  0  0  0  0  0  0  0
    9.0245   45.4686   33.6765 H   0  0  0  0  0  0  0  0  0  0  0  0
   10.7941   46.9817   33.1428 H   0  0  0  0  0  0  0  0  0  0  0  0
   11.1204   46.1578   34.5441 H   0  0  0  0  0  0  0  0  0  0  0  0
    9.0537   44.1344   31.4787 H   0  0  0  0  0  0  0  0  0  0  0  0
   10.7426   44.6525   31.2211 H   0  0  0  0  0  0  0  0  0  0  0  0
    7.2210   45.9112   31.7217 H   0  0  0  0  0  0  0  0  0  0  0  0
   11.1722   46.8369   30.2663 H   0  0  0  0  0  0  0  0  0  0  0  0
    6.3657   47.9769   30.7275 H   0  0  0  0  0  0  0  0  0  0  0  0
   10.3128   48.9135   29.2644 H   0  0  0  0  0  0  0  0  0  0  0  0
    6.1876   50.4318   30.4244 H   0  0  0  0  0  0  0  0  0  0  0  0
    5.8251   49.5402   28.8786 H   0  0  0  0  0  0  0  0  0  0  0  0
    6.4391   51.2352   28.8294 H   0  0  0  0  0  0  0  0  0  0  0  0
   11.3786   41.5520   31.4715 H   0  0  0  0  0  0  0  0  0  0  0  0
    9.8229   40.7185   31.7597 H   0  0  0  0  0  0  0  0  0  0  0  0
   11.7285   39.5297   30.3510 H   0  0  0  0  0  0  0  0  0  0  0  0
   10.1133   38.2720   32.6379 H   0  0  0  0  0  0  0  0  0  0  0  0
   13.6723   37.4649   31.2240 H   0  0  0  0  0  0  0  0  0  0  0  0
   10.0536   38.1091   29.7638 H   0  0  0  0  0  0  0  0  0  0  0  0
   11.2646   36.3140   32.5108 H   0  0  0  0  0  0  0  0  0  0  0  0
   12.1553   35.5038   30.6317 H   0  0  0  0  0  0  0  0  0  0  0  0
   12.3362   38.3588   34.7452 H   0  0  0  0  0  0  0  0  0  0  0  0
   16.7572   34.1789   32.4618 H   0  0  0  0  0  0  0  0  0  0  0  0
   15.3533   35.7353   37.5138 H   0  0  0  0  0  0  0  0  0  0  0  0
   16.6366   34.5314   37.1414 H   0  0  0  0  0  0  0  0  0  0  0  0
  1  2  2  0
  1  3  1  0
  3  4  1  0
  4  5  1  0
  6  1  1  0
  7  6  1  0
  6  8  1  0
  8  9  1  0
  9 10  2  0
 11  9  1  0
 10 12  1  0
 13 11  2  0
 12 14  2  0
 14 13  1  0
 14 15  1  0
 15 16  1  0
  4 17  2  0
  4 18  1  0
 19 18  1  0
 19 20  1  0
 20 21  1  0
 20 22  1  0
 21 23  1  0
 22 24  1  0
 22 25  1  0
 25 23  1  0
 23 26  1  0
 25 27  1  0
 28 26  1  0
 29 26  1  0
 30 28  2  0
 28 31  1  0
 32 29  2  0
 33 30  1  0
 31 34  2  0
 31 32  1  0
 35 33  2  0
 35 34  1  0
 34 36  1  0
  6 37  1  1
  7 38  1  0
  7 39  1  0
  8 40  1  0
  8 41  1  0
 10 42  1  0
 11 43  1  0
 12 44  1  0
 13 45  1  0
 16 46  1  0
 16 47  1  0
 16 48  1  0
 19 49  1  0
 19 50  1  0
 20 51  1  0
 22 52  1  0
 23 53  1  0
 24 54  1  0
 25 55  1  0
 27 56  1  0
 29 57  1  0
 33 58  1  0
 36 59  1  0
 36 60  1  0
M  CHG  1   5  -1
M  END
>  <EmbedRMS>  (110) 
0.08785120939407862

$$$$

     RDKit          3D

 60 63  0  0  0  0  0  0  0  0999 V2000
   10.2880   43.7719   33.8023 C   0  0  0  0  0  0  0  0  0  0  0  0
   11.4129   43.5865   34.3533 O   0  0  0  0  0  0  0  0  0  0  0  0
    9.3632   42.7344   33.7122 O   0  0  0  0  0  0  0  0  0  0  0  0
    9.8848   41.2347   34.2865 P   0  0  0  0  0  5  0  0  0  0  0  0
   10.3679   41.4664   35.8765 O   0  0  0  0  0  1  0  0  0  0  0  0
    9.9688   45.1018   33.2142 C   0  0  1  0  0  0  0  0  0  0  0  0
   11.0575   46.0377   33.5061 N   0  0  0  0  0  0  0  0  0  0  0  0
    9.7786   44.9517   31.6903 C   0  0  0  0  0  0  0  0  0  0  0  0
    9.2550   46.2168   31.0588 C   0  0  0  0  0  0  0  0  0  0  0  0
   10.1193   47.0788   30.3657 C   0  0  0  0  0  0  0  0  0  0  0  0
    7.8996   46.5581   31.1829 C   0  0  0  0  0  0  0  0  0  0  0  0
    9.6336   48.2605   29.7981 C   0  0  0  0  0  0  0  0  0  0  0  0
    7.4145   47.7394   30.6149 C   0  0  0  0  0  0  0  0  0  0  0  0
    8.2722   48.5992   29.9193 C   0  0  0  0  0  0  0  0  0  0  0  0
    7.7366   49.7727   29.3681 O   0  0  0  0  0  0  0  0  0  0  0  0
    8.4910   50.7349   28.6384 C   0  0  0  0  0  0  0  0  0  0  0  0
    8.8077   40.1915   34.2097 O   0  0  0  0  0  0  0  0  0  0  0  0
   11.2362   40.7933   33.3677 O   0  0  0  0  0  0  0  0  0  0  0  0
   10.9134   40.6894   31.9951 C   0  0  0  0  0  0  0  0  0  0  0  0
   11.5252   39.3880   31.4370 C   0  0  0  0  0  0  0  0  0  0  0  0
   12.7484   39.0901   32.0826 O   0  0  0  0  0  0  0  0  0  0  0  0
   10.6119   38.1897   31.6462 C   0  0  0  0  0  0  0  0  0  0  0  0
   12.9371   37.6835   32.0303 C   0  0  0  0  0  0  0  0  0  0  0  0
    9.6149   38.0841   30.6537 O   0  0  0  0  0  0  0  0  0  0  0  0
   11.5792   37.0141   31.7014 C   0  0  0  0  0  0  0  0  0  0  0  0
   13.4906   37.2173   33.3242 N   0  0  0  0  0  0  0  0  0  0  0  0
   11.6217   36.3256   30.4726 O   0  0  0  0  0  0  0  0  0  0  0  0
   14.4762   36.3268   33.5730 C   0  0  0  0  0  0  0  0  0  0  0  0
   13.1181   37.6310   34.5695 C   0  0  0  0  0  0  0  0  0  0  0  0
   15.2065   35.6139   32.6739 N   0  0  0  0  0  0  0  0  0  0  0  0
   14.6735   36.2270   34.9184 C   0  0  0  0  0  0  0  0  0  0  0  0
   13.8228   37.0451   35.5787 N   0  0  0  0  0  0  0  0  0  0  0  0
   16.1638   34.7594   33.1546 C   0  0  0  0  0  0  0  0  0  0  0  0
   15.6518   35.3489   35.4131 C   0  0  0  0  0  0  0  0  0  0  0  0
   16.3794   34.6308   34.5041 N   0  0  0  0  0  0  0  0  0  0  0  0
   15.9005   35.1931   36.8089 N   0  0  0  0  0  0  0  0  0  0  0  0
    9.0245   45.4685   33.6766 H   0  0  0  0  0  0  0  0  0  0  0  0
   10.7940   46.9817   33.1427 H   0  0  0  0  0  0  0  0  0  0  0  0
   11.1204   46.1578   34.5441 H   0  0  0  0  0  0  0  0  0  0  0  0
    9.0542   44.1340   31.4786 H   0  0  0  0  0  0  0  0  0  0  0  0
   10.7427   44.6534   31.2209 H   0  0  0  0  0  0  0  0  0  0  0  0
   11.1708   46.8383   30.2683 H   0  0  0  0  0  0  0  0  0  0  0  0
    7.2193   45.9091   31.7207 H   0  0  0  0  0  0  0  0  0  0  0  0
   10.3241   48.9037   29.2699 H   0  0  0  0  0  0  0  0  0  0  0  0
    6.3660   47.9894   30.7172 H   0  0  0  0  0  0  0  0  0  0  0  0
    7.8184   51.5577   28.3206 H   0  0  0  0  0  0  0  0  0  0  0  0
    9.2922   51.1584   29.2802 H   0  0  0  0  0  0  0  0  0  0  0  0
    8.9329   50.2671   27.7334 H   0  0  0  0  0  0  0  0  0  0  0  0
   11.3786   41.5520   31.4715 H   0  0  0  0  0  0  0  0  0  0  0  0
    9.8229   40.7185   31.7597 H   0  0  0  0  0  0  0  0  0  0  0  0
   11.7285   39.5297   30.3510 H   0  0  0  0  0  0  0  0  0  0  0  0
   10.1133   38.2720   32.6379 H   0  0  0  0  0  0  0  0  0  0  0  0
   13.6723   37.4649   31.2240 H   0  0  0  0  0  0  0  0  0  0  0  0
   10.0536   38.1091   29.7638 H   0  0  0  0  0  0  0  0  0  0  0  0
   11.2646   36.3139   32.5108 H   0  0  0  0  0  0  0  0  0  0  0  0
   12.1553   35.5038   30.6317 H   0  0  0  0  0  0  0  0  0  0  0  0
   12.3362   38.3588   34.7452 H   0  0  0  0  0  0  0  0  0  0  0  0
   16.7572   34.1789   32.4618 H   0  0  0  0  0  0  0  0  0  0  0  0
   16.6365   34.5314   37.1414 H   0  0  0  0  0  0  0  0  0  0  0  0
   15.3533   35.7353   37.5138 H   0  0  0  0  0  0  0  0  0  0  0  0
  1  2  2  0
  1  3  1  0
  3  4  1  0
  4  5  1  0
  6  1  1  0
  7  6  1  0
  6  8  1  0
  8  9  1  0
  9 10  2  0
 11  9  1  0
 10 12  1  0
 13 11  2  0
 12 14  2  0
 14 13  1  0
 14 15  1  0
 15 16  1  0
  4 17  2  0
  4 18  1  0
 19 18  1  0
 19 20  1  0
 20 21  1  0
 20 22  1  0
 21 23  1  0
 22 24  1  0
 22 25  1  0
 25 23  1  0
 23 26  1  0
 25 27  1  0
 28 26  1  0
 29 26  1  0
 30 28  2  0
 28 31  1  0
 32 29  2  0
 33 30  1  0
 31 34  2  0
 31 32  1  0
 35 33  2  0
 35 34  1  0
 34 36  1  0
  6 37  1  1
  7 38  1  0
  7 39  1  0
  8 40  1  0
  8 41  1  0
 10 42  1  0
 11 43  1  0
 12 44  1  0
 13 45  1  0
 16 46  1  0
 16 47  1  0
 16 48  1  0
 19 49  1  0
 19 50  1  0
 20 51  1  0
 22 52  1  0
 23 53  1  0
 24 54  1  0
 25 55  1  0
 27 56  1  0
 29 57  1  0
 33 58  1  0
 36 59  1  0
 36 60  1  0
M  CHG  1   5  -1
M  END
>  <EmbedRMS>  (111) 
0.08785273545661014

$$$$

     RDKit          3D

 60 63  0  0  0  0  0  0  0  0999 V2000
   10.2875   43.7696   33.7812 C   0  0  0  0  0  0  0  0  0  0  0  0
   11.4117   43.5816   34.3339 O   0  0  0  0  0  0  0  0  0  0  0  0
    9.3645   42.7314   33.6889 O   0  0  0  0  0  0  0  0  0  0  0  0
    9.8817   41.2352   34.2819 P   0  0  0  0  0  5  0  0  0  0  0  0
   10.3602   41.4751   35.8726 O   0  0  0  0  0  1  0  0  0  0  0  0
    9.9274   45.1411   33.3246 C   0  0  1  0  0  0  0  0  0  0  0  0
   11.0838   46.0288   33.4528 N   0  0  0  0  0  0  0  0  0  0  0  0
    9.2701   45.2037   31.9238 C   0  0  0  0  0  0  0  0  0  0  0  0
   10.0888   44.6071   30.8043 C   0  0  0  0  0  0  0  0  0  0  0  0
   11.1423   45.3300   30.2222 C   0  0  0  0  0  0  0  0  0  0  0  0
    9.7495   43.3522   30.2763 C   0  0  0  0  0  0  0  0  0  0  0  0
   11.8740   44.7864   29.1620 C   0  0  0  0  0  0  0  0  0  0  0  0
   10.4736   42.8134   29.2091 C   0  0  0  0  0  0  0  0  0  0  0  0
   11.5453   43.5171   28.6497 C   0  0  0  0  0  0  0  0  0  0  0  0
   12.2503   42.9265   27.5906 O   0  0  0  0  0  0  0  0  0  0  0  0
   13.3625   43.5249   26.9332 C   0  0  0  0  0  0  0  0  0  0  0  0
    8.8045   40.1921   34.2084 O   0  0  0  0  0  0  0  0  0  0  0  0
   11.2366   40.7798   33.3775 O   0  0  0  0  0  0  0  0  0  0  0  0
   10.9282   40.6884   32.0023 C   0  0  0  0  0  0  0  0  0  0  0  0
   11.5305   39.3889   31.4394 C   0  0  0  0  0  0  0  0  0  0  0  0
   12.7546   39.0889   32.0826 O   0  0  0  0  0  0  0  0  0  0  0  0
   10.6132   38.1924   31.6463 C   0  0  0  0  0  0  0  0  0  0  0  0
   12.9436   37.6829   32.0293 C   0  0  0  0  0  0  0  0  0  0  0  0
    9.6080   38.0882   30.6609 O   0  0  0  0  0  0  0  0  0  0  0  0
   11.5841   37.0183   31.6882 C   0  0  0  0  0  0  0  0  0  0  0  0
   13.4898   37.2149   33.3251 N   0  0  0  0  0  0  0  0  0  0  0  0
   11.6188   36.3065   30.4691 O   0  0  0  0  0  0  0  0  0  0  0  0
   14.4761   36.3256   33.5741 C   0  0  0  0  0  0  0  0  0  0  0  0
   13.1175   37.6300   34.5697 C   0  0  0  0  0  0  0  0  0  0  0  0
   15.2068   35.6133   32.6749 N   0  0  0  0  0  0  0  0  0  0  0  0
   14.6733   36.2265   34.9192 C   0  0  0  0  0  0  0  0  0  0  0  0
   13.8225   37.0448   35.5792 N   0  0  0  0  0  0  0  0  0  0  0  0
   16.1644   34.7592   33.1554 C   0  0  0  0  0  0  0  0  0  0  0  0
   15.6520   35.3488   35.4139 C   0  0  0  0  0  0  0  0  0  0  0  0
   16.3798   34.6308   34.5049 N   0  0  0  0  0  0  0  0  0  0  0  0
   15.9007   35.1930   36.8096 N   0  0  0  0  0  0  0  0  0  0  0  0
    9.1611   45.5053   34.0436 H   0  0  0  0  0  0  0  0  0  0  0  0
   10.8110   46.9930   33.1530 H   0  0  0  0  0  0  0  0  0  0  0  0
   11.8536   45.7045   32.8247 H   0  0  0  0  0  0  0  0  0  0  0  0
    8.2825   44.6943   31.9772 H   0  0  0  0  0  0  0  0  0  0  0  0
    9.0429   46.2637   31.6765 H   0  0  0  0  0  0  0  0  0  0  0  0
   11.3906   46.3214   30.5791 H   0  0  0  0  0  0  0  0  0  0  0  0
    8.9213   42.7898   30.6888 H   0  0  0  0  0  0  0  0  0  0  0  0
   12.6858   45.3646   28.7424 H   0  0  0  0  0  0  0  0  0  0  0  0
   10.2053   41.8390   28.8204 H   0  0  0  0  0  0  0  0  0  0  0  0
   14.1848   43.7015   27.6584 H   0  0  0  0  0  0  0  0  0  0  0  0
   13.7279   42.8390   26.1419 H   0  0  0  0  0  0  0  0  0  0  0  0
   13.0569   44.4823   26.4608 H   0  0  0  0  0  0  0  0  0  0  0  0
    9.8420   40.7319   31.7528 H   0  0  0  0  0  0  0  0  0  0  0  0
   11.4269   41.5413   31.4993 H   0  0  0  0  0  0  0  0  0  0  0  0
   11.7332   39.5356   30.3538 H   0  0  0  0  0  0  0  0  0  0  0  0
   10.1223   38.2693   32.6423 H   0  0  0  0  0  0  0  0  0  0  0  0
   13.6886   37.4663   31.2318 H   0  0  0  0  0  0  0  0  0  0  0  0
   10.0264   38.1819   29.7665 H   0  0  0  0  0  0  0  0  0  0  0  0
   11.2787   36.3120   32.4915 H   0  0  0  0  0  0  0  0  0  0  0  0
   11.9849   36.9107   29.7712 H   0  0  0  0  0  0  0  0  0  0  0  0
   12.3364   38.3588   34.7448 H   0  0  0  0  0  0  0  0  0  0  0  0
   16.7581   34.1791   32.4626 H   0  0  0  0  0  0  0  0  0  0  0  0
   16.6370   34.5316   37.1421 H   0  0  0  0  0  0  0  0  0  0  0  0
   15.3533   35.7351   37.5145 H   0  0  0  0  0  0  0  0  0  0  0  0
  1  2  2  0
  1  3  1  0
  3  4  1  0
  4  5  1  0
  6  1  1  0
  7  6  1  0
  6  8  1  0
  8  9  1  0
  9 10  2  0
 11  9  1  0
 10 12  1  0
 13 11  2  0
 12 14  2  0
 14 13  1  0
 14 15  1  0
 15 16  1  0
  4 17  2  0
  4 18  1  0
 19 18  1  0
 19 20  1  0
 20 21  1  0
 20 22  1  0
 21 23  1  0
 22 24  1  0
 22 25  1  0
 25 23  1  0
 23 26  1  0
 25 27  1  0
 28 26  1  0
 29 26  1  0
 30 28  2  0
 28 31  1  0
 32 29  2  0
 33 30  1  0
 31 34  2  0
 31 32  1  0
 35 33  2  0
 35 34  1  0
 34 36  1  0
  6 37  1  1
  7 38  1  0
  7 39  1  0
  8 40  1  0
  8 41  1  0
 10 42  1  0
 11 43  1  0
 12 44  1  0
 13 45  1  0
 16 46  1  0
 16 47  1  0
 16 48  1  0
 19 49  1  0
 19 50  1  0
 20 51  1  0
 22 52  1  0
 23 53  1  0
 24 54  1  0
 25 55  1  0
 27 56  1  0
 29 57  1  0
 33 58  1  0
 36 59  1  0
 36 60  1  0
M  CHG  1   5  -1
M  END
>  <EmbedRMS>  (112) 
0.09092850322592219

$$$$

     RDKit          3D

 60 63  0  0  0  0  0  0  0  0999 V2000
   10.3000   43.7682   33.7923 C   0  0  0  0  0  0  0  0  0  0  0  0
   11.4162   43.5823   34.3593 O   0  0  0  0  0  0  0  0  0  0  0  0
    9.3695   42.7351   33.7053 O   0  0  0  0  0  0  0  0  0  0  0  0
    9.8864   41.2350   34.2832 P   0  0  0  0  0  5  0  0  0  0  0  0
   10.3697   41.4669   35.8733 O   0  0  0  0  0  1  0  0  0  0  0  0
    9.9795   45.1073   33.2192 C   0  0  1  0  0  0  0  0  0  0  0  0
   11.0353   46.0791   33.5233 N   0  0  0  0  0  0  0  0  0  0  0  0
    9.6905   45.0377   31.6964 C   0  0  0  0  0  0  0  0  0  0  0  0
   10.8933   45.2655   30.8025 C   0  0  0  0  0  0  0  0  0  0  0  0
   10.8848   46.3088   29.8611 C   0  0  0  0  0  0  0  0  0  0  0  0
   12.0145   44.4236   30.8718 C   0  0  0  0  0  0  0  0  0  0  0  0
   11.9773   46.5087   29.0118 C   0  0  0  0  0  0  0  0  0  0  0  0
   13.1068   44.6238   30.0239 C   0  0  0  0  0  0  0  0  0  0  0  0
   13.0997   45.6632   29.0881 C   0  0  0  0  0  0  0  0  0  0  0  0
   14.2201   45.8222   28.2591 O   0  0  0  0  0  0  0  0  0  0  0  0
   14.3479   46.8347   27.2661 C   0  0  0  0  0  0  0  0  0  0  0  0
    8.8075   40.1933   34.2079 O   0  0  0  0  0  0  0  0  0  0  0  0
   11.2360   40.7939   33.3610 O   0  0  0  0  0  0  0  0  0  0  0  0
   10.9036   40.6741   31.9912 C   0  0  0  0  0  0  0  0  0  0  0  0
   11.5130   39.3713   31.4399 C   0  0  0  0  0  0  0  0  0  0  0  0
   12.7441   39.0839   32.0750 O   0  0  0  0  0  0  0  0  0  0  0  0
   10.6036   38.1809   31.6676 C   0  0  0  0  0  0  0  0  0  0  0  0
   12.9344   37.6781   32.0285 C   0  0  0  0  0  0  0  0  0  0  0  0
    9.6368   38.0867   30.6493 O   0  0  0  0  0  0  0  0  0  0  0  0
   11.5770   37.0095   31.7052 C   0  0  0  0  0  0  0  0  0  0  0  0
   13.4910   37.2174   33.3235 N   0  0  0  0  0  0  0  0  0  0  0  0
   11.6250   36.3355   30.4672 O   0  0  0  0  0  0  0  0  0  0  0  0
   14.4766   36.3270   33.5729 C   0  0  0  0  0  0  0  0  0  0  0  0
   13.1182   37.6313   34.5687 C   0  0  0  0  0  0  0  0  0  0  0  0
   15.2067   35.6136   32.6740 N   0  0  0  0  0  0  0  0  0  0  0  0
   14.6737   36.2275   34.9183 C   0  0  0  0  0  0  0  0  0  0  0  0
   13.8228   37.0456   35.5783 N   0  0  0  0  0  0  0  0  0  0  0  0
   16.1639   34.7592   33.1548 C   0  0  0  0  0  0  0  0  0  0  0  0
   15.6518   35.3492   35.4132 C   0  0  0  0  0  0  0  0  0  0  0  0
   16.3793   34.6308   34.5044 N   0  0  0  0  0  0  0  0  0  0  0  0
   15.9003   35.1933   36.8091 N   0  0  0  0  0  0  0  0  0  0  0  0
    9.0442   45.4464   33.7180 H   0  0  0  0  0  0  0  0  0  0  0  0
   11.9767   45.7173   33.2477 H   0  0  0  0  0  0  0  0  0  0  0  0
   11.0543   46.2449   34.5564 H   0  0  0  0  0  0  0  0  0  0  0  0
    9.2304   44.0614   31.4291 H   0  0  0  0  0  0  0  0  0  0  0  0
    8.9155   45.8026   31.4688 H   0  0  0  0  0  0  0  0  0  0  0  0
   10.0308   46.9698   29.7801 H   0  0  0  0  0  0  0  0  0  0  0  0
   12.0594   43.6319   31.6023 H   0  0  0  0  0  0  0  0  0  0  0  0
   11.9381   47.3214   28.2995 H   0  0  0  0  0  0  0  0  0  0  0  0
   13.9665   43.9697   30.0977 H   0  0  0  0  0  0  0  0  0  0  0  0
   14.2978   47.8393   27.7366 H   0  0  0  0  0  0  0  0  0  0  0  0
   13.5452   46.7276   26.5062 H   0  0  0  0  0  0  0  0  0  0  0  0
   15.3304   46.7268   26.7627 H   0  0  0  0  0  0  0  0  0  0  0  0
    9.8119   40.7029   31.7616 H   0  0  0  0  0  0  0  0  0  0  0  0
   11.3649   41.5197   31.4482 H   0  0  0  0  0  0  0  0  0  0  0  0
   11.6954   39.4944   30.3470 H   0  0  0  0  0  0  0  0  0  0  0  0
   10.1085   38.2695   32.6639 H   0  0  0  0  0  0  0  0  0  0  0  0
   13.6678   37.4554   31.2217 H   0  0  0  0  0  0  0  0  0  0  0  0
    8.9779   37.4092   30.9525 H   0  0  0  0  0  0  0  0  0  0  0  0
   11.2884   36.2991   32.5165 H   0  0  0  0  0  0  0  0  0  0  0  0
   10.8720   35.6885   30.4641 H   0  0  0  0  0  0  0  0  0  0  0  0
   12.3355   38.3584   34.7440 H   0  0  0  0  0  0  0  0  0  0  0  0
   16.7573   34.1785   32.4622 H   0  0  0  0  0  0  0  0  0  0  0  0
   16.6362   34.5315   37.1416 H   0  0  0  0  0  0  0  0  0  0  0  0
   15.3531   35.7357   37.5139 H   0  0  0  0  0  0  0  0  0  0  0  0
  1  2  2  0
  1  3  1  0
  3  4  1  0
  4  5  1  0
  6  1  1  0
  7  6  1  0
  6  8  1  0
  8  9  1  0
  9 10  2  0
 11  9  1  0
 10 12  1  0
 13 11  2  0
 12 14  2  0
 14 13  1  0
 14 15  1  0
 15 16  1  0
  4 17  2  0
  4 18  1  0
 19 18  1  0
 19 20  1  0
 20 21  1  0
 20 22  1  0
 21 23  1  0
 22 24  1  0
 22 25  1  0
 25 23  1  0
 23 26  1  0
 25 27  1  0
 28 26  1  0
 29 26  1  0
 30 28  2  0
 28 31  1  0
 32 29  2  0
 33 30  1  0
 31 34  2  0
 31 32  1  0
 35 33  2  0
 35 34  1  0
 34 36  1  0
  6 37  1  1
  7 38  1  0
  7 39  1  0
  8 40  1  0
  8 41  1  0
 10 42  1  0
 11 43  1  0
 12 44  1  0
 13 45  1  0
 16 46  1  0
 16 47  1  0
 16 48  1  0
 19 49  1  0
 19 50  1  0
 20 51  1  0
 22 52  1  0
 23 53  1  0
 24 54  1  0
 25 55  1  0
 27 56  1  0
 29 57  1  0
 33 58  1  0
 36 59  1  0
 36 60  1  0
M  CHG  1   5  -1
M  END
>  <EmbedRMS>  (113) 
0.09120503400660096

$$$$

     RDKit          3D

 60 63  0  0  0  0  0  0  0  0999 V2000
   10.3000   43.7682   33.7924 C   0  0  0  0  0  0  0  0  0  0  0  0
   11.4162   43.5823   34.3593 O   0  0  0  0  0  0  0  0  0  0  0  0
    9.3695   42.7351   33.7053 O   0  0  0  0  0  0  0  0  0  0  0  0
    9.8864   41.2350   34.2832 P   0  0  0  0  0  5  0  0  0  0  0  0
   10.3697   41.4669   35.8733 O   0  0  0  0  0  1  0  0  0  0  0  0
    9.9795   45.1073   33.2192 C   0  0  1  0  0  0  0  0  0  0  0  0
   11.0353   46.0791   33.5233 N   0  0  0  0  0  0  0  0  0  0  0  0
    9.6905   45.0377   31.6964 C   0  0  0  0  0  0  0  0  0  0  0  0
   10.8933   45.2654   30.8025 C   0  0  0  0  0  0  0  0  0  0  0  0
   10.8848   46.3087   29.8610 C   0  0  0  0  0  0  0  0  0  0  0  0
   12.0145   44.4236   30.8718 C   0  0  0  0  0  0  0  0  0  0  0  0
   11.9773   46.5085   29.0117 C   0  0  0  0  0  0  0  0  0  0  0  0
   13.1069   44.6238   30.0240 C   0  0  0  0  0  0  0  0  0  0  0  0
   13.0997   45.6631   29.0881 C   0  0  0  0  0  0  0  0  0  0  0  0
   14.2201   45.8220   28.2591 O   0  0  0  0  0  0  0  0  0  0  0  0
   14.3479   46.8344   27.2660 C   0  0  0  0  0  0  0  0  0  0  0  0
    8.8075   40.1933   34.2079 O   0  0  0  0  0  0  0  0  0  0  0  0
   11.2360   40.7939   33.3610 O   0  0  0  0  0  0  0  0  0  0  0  0
   10.9036   40.6741   31.9912 C   0  0  0  0  0  0  0  0  0  0  0  0
   11.5130   39.3713   31.4399 C   0  0  0  0  0  0  0  0  0  0  0  0
   12.7441   39.0839   32.0750 O   0  0  0  0  0  0  0  0  0  0  0  0
   10.6036   38.1808   31.6676 C   0  0  0  0  0  0  0  0  0  0  0  0
   12.9344   37.6781   32.0285 C   0  0  0  0  0  0  0  0  0  0  0  0
    9.6368   38.0867   30.6494 O   0  0  0  0  0  0  0  0  0  0  0  0
   11.5770   37.0095   31.7052 C   0  0  0  0  0  0  0  0  0  0  0  0
   13.4910   37.2174   33.3235 N   0  0  0  0  0  0  0  0  0  0  0  0
   11.6250   36.3355   30.4672 O   0  0  0  0  0  0  0  0  0  0  0  0
   14.4766   36.3270   33.5729 C   0  0  0  0  0  0  0  0  0  0  0  0
   13.1182   37.6313   34.5687 C   0  0  0  0  0  0  0  0  0  0  0  0
   15.2067   35.6136   32.6740 N   0  0  0  0  0  0  0  0  0  0  0  0
   14.6737   36.2275   34.9183 C   0  0  0  0  0  0  0  0  0  0  0  0
   13.8228   37.0457   35.5783 N   0  0  0  0  0  0  0  0  0  0  0  0
   16.1639   34.7592   33.1548 C   0  0  0  0  0  0  0  0  0  0  0  0
   15.6518   35.3492   35.4132 C   0  0  0  0  0  0  0  0  0  0  0  0
   16.3793   34.6308   34.5044 N   0  0  0  0  0  0  0  0  0  0  0  0
   15.9003   35.1933   36.8091 N   0  0  0  0  0  0  0  0  0  0  0  0
    9.0441   45.4464   33.7180 H   0  0  0  0  0  0  0  0  0  0  0  0
   11.0542   46.2449   34.5564 H   0  0  0  0  0  0  0  0  0  0  0  0
   11.9768   45.7173   33.2477 H   0  0  0  0  0  0  0  0  0  0  0  0
    9.2304   44.0614   31.4291 H   0  0  0  0  0  0  0  0  0  0  0  0
    8.9155   45.8026   31.4688 H   0  0  0  0  0  0  0  0  0  0  0  0
   10.0309   46.9697   29.7799 H   0  0  0  0  0  0  0  0  0  0  0  0
   12.0595   43.6319   31.6024 H   0  0  0  0  0  0  0  0  0  0  0  0
   11.9381   47.3212   28.2994 H   0  0  0  0  0  0  0  0  0  0  0  0
   13.9665   43.9697   30.0979 H   0  0  0  0  0  0  0  0  0  0  0  0
   13.5453   46.7273   26.5061 H   0  0  0  0  0  0  0  0  0  0  0  0
   15.3304   46.7264   26.7626 H   0  0  0  0  0  0  0  0  0  0  0  0
   14.2978   47.8391   27.7364 H   0  0  0  0  0  0  0  0  0  0  0  0
   11.3649   41.5197   31.4482 H   0  0  0  0  0  0  0  0  0  0  0  0
    9.8119   40.7029   31.7616 H   0  0  0  0  0  0  0  0  0  0  0  0
   11.6953   39.4944   30.3470 H   0  0  0  0  0  0  0  0  0  0  0  0
   10.1085   38.2695   32.6639 H   0  0  0  0  0  0  0  0  0  0  0  0
   13.6678   37.4554   31.2217 H   0  0  0  0  0  0  0  0  0  0  0  0
    8.9779   37.4092   30.9526 H   0  0  0  0  0  0  0  0  0  0  0  0
   11.2884   36.2991   32.5165 H   0  0  0  0  0  0  0  0  0  0  0  0
   10.8720   35.6885   30.4641 H   0  0  0  0  0  0  0  0  0  0  0  0
   12.3355   38.3584   34.7440 H   0  0  0  0  0  0  0  0  0  0  0  0
   16.7573   34.1785   32.4622 H   0  0  0  0  0  0  0  0  0  0  0  0
   16.6362   34.5315   37.1416 H   0  0  0  0  0  0  0  0  0  0  0  0
   15.3531   35.7357   37.5139 H   0  0  0  0  0  0  0  0  0  0  0  0
  1  2  2  0
  1  3  1  0
  3  4  1  0
  4  5  1  0
  6  1  1  0
  7  6  1  0
  6  8  1  0
  8  9  1  0
  9 10  2  0
 11  9  1  0
 10 12  1  0
 13 11  2  0
 12 14  2  0
 14 13  1  0
 14 15  1  0
 15 16  1  0
  4 17  2  0
  4 18  1  0
 19 18  1  0
 19 20  1  0
 20 21  1  0
 20 22  1  0
 21 23  1  0
 22 24  1  0
 22 25  1  0
 25 23  1  0
 23 26  1  0
 25 27  1  0
 28 26  1  0
 29 26  1  0
 30 28  2  0
 28 31  1  0
 32 29  2  0
 33 30  1  0
 31 34  2  0
 31 32  1  0
 35 33  2  0
 35 34  1  0
 34 36  1  0
  6 37  1  1
  7 38  1  0
  7 39  1  0
  8 40  1  0
  8 41  1  0
 10 42  1  0
 11 43  1  0
 12 44  1  0
 13 45  1  0
 16 46  1  0
 16 47  1  0
 16 48  1  0
 19 49  1  0
 19 50  1  0
 20 51  1  0
 22 52  1  0
 23 53  1  0
 24 54  1  0
 25 55  1  0
 27 56  1  0
 29 57  1  0
 33 58  1  0
 36 59  1  0
 36 60  1  0
M  CHG  1   5  -1
M  END
>  <EmbedRMS>  (114) 
0.09120493863306471

$$$$

     RDKit          3D

 60 63  0  0  0  0  0  0  0  0999 V2000
   10.2871   43.7692   33.7895 C   0  0  0  0  0  0  0  0  0  0  0  0
   11.4140   43.5805   34.3360 O   0  0  0  0  0  0  0  0  0  0  0  0
    9.3643   42.7312   33.6953 O   0  0  0  0  0  0  0  0  0  0  0  0
    9.8823   41.2338   34.2826 P   0  0  0  0  0  5  0  0  0  0  0  0
   10.3620   41.4721   35.8732 O   0  0  0  0  0  1  0  0  0  0  0  0
    9.9371   45.1298   33.2923 C   0  0  1  0  0  0  0  0  0  0  0  0
   11.0773   46.0315   33.4642 N   0  0  0  0  0  0  0  0  0  0  0  0
    9.4244   45.1276   31.8315 C   0  0  0  0  0  0  0  0  0  0  0  0
   10.2828   44.3616   30.8481 C   0  0  0  0  0  0  0  0  0  0  0  0
    9.7212   43.3141   30.0980 C   0  0  0  0  0  0  0  0  0  0  0  0
   11.6143   44.7357   30.6028 C   0  0  0  0  0  0  0  0  0  0  0  0
   10.4845   42.6363   29.1435 C   0  0  0  0  0  0  0  0  0  0  0  0
   12.3823   44.0460   29.6594 C   0  0  0  0  0  0  0  0  0  0  0  0
   11.8209   42.9852   28.9239 C   0  0  0  0  0  0  0  0  0  0  0  0
   12.5518   42.2582   27.9728 O   0  0  0  0  0  0  0  0  0  0  0  0
   13.9228   42.4886   27.6656 C   0  0  0  0  0  0  0  0  0  0  0  0
    8.8045   40.1915   34.2086 O   0  0  0  0  0  0  0  0  0  0  0  0
   11.2364   40.7804   33.3754 O   0  0  0  0  0  0  0  0  0  0  0  0
   10.9267   40.6863   32.0003 C   0  0  0  0  0  0  0  0  0  0  0  0
   11.5194   39.3783   31.4412 C   0  0  0  0  0  0  0  0  0  0  0  0
   12.7506   39.0839   32.0723 O   0  0  0  0  0  0  0  0  0  0  0  0
   10.6053   38.1890   31.6677 C   0  0  0  0  0  0  0  0  0  0  0  0
   12.9349   37.6776   32.0278 C   0  0  0  0  0  0  0  0  0  0  0  0
    9.6388   38.0953   30.6490 O   0  0  0  0  0  0  0  0  0  0  0  0
   11.5754   37.0137   31.7059 C   0  0  0  0  0  0  0  0  0  0  0  0
   13.4908   37.2169   33.3232 N   0  0  0  0  0  0  0  0  0  0  0  0
   11.6218   36.3377   30.4687 O   0  0  0  0  0  0  0  0  0  0  0  0
   14.4766   36.3268   33.5728 C   0  0  0  0  0  0  0  0  0  0  0  0
   13.1181   37.6312   34.5683 C   0  0  0  0  0  0  0  0  0  0  0  0
   15.2067   35.6134   32.6740 N   0  0  0  0  0  0  0  0  0  0  0  0
   14.6736   36.2275   34.9182 C   0  0  0  0  0  0  0  0  0  0  0  0
   13.8227   37.0457   35.5780 N   0  0  0  0  0  0  0  0  0  0  0  0
   16.1640   34.7591   33.1549 C   0  0  0  0  0  0  0  0  0  0  0  0
   15.6518   35.3492   35.4132 C   0  0  0  0  0  0  0  0  0  0  0  0
   16.3794   34.6309   34.5044 N   0  0  0  0  0  0  0  0  0  0  0  0
   15.9003   35.1934   36.8091 N   0  0  0  0  0  0  0  0  0  0  0  0
    9.1037   45.5033   33.9299 H   0  0  0  0  0  0  0  0  0  0  0  0
   10.8071   46.9808   33.1178 H   0  0  0  0  0  0  0  0  0  0  0  0
   11.2565   46.1520   34.4885 H   0  0  0  0  0  0  0  0  0  0  0  0
    8.3938   44.7084   31.8365 H   0  0  0  0  0  0  0  0  0  0  0  0
    9.3209   46.1736   31.4704 H   0  0  0  0  0  0  0  0  0  0  0  0
    8.6911   43.0175   30.2510 H   0  0  0  0  0  0  0  0  0  0  0  0
   12.0609   45.5670   31.1301 H   0  0  0  0  0  0  0  0  0  0  0  0
   10.0391   41.8249   28.5818 H   0  0  0  0  0  0  0  0  0  0  0  0
   13.4078   44.3515   29.5033 H   0  0  0  0  0  0  0  0  0  0  0  0
   14.5471   42.3398   28.5719 H   0  0  0  0  0  0  0  0  0  0  0  0
   14.0582   43.5183   27.2724 H   0  0  0  0  0  0  0  0  0  0  0  0
   14.2465   41.7662   26.8886 H   0  0  0  0  0  0  0  0  0  0  0  0
    9.8411   40.7443   31.7489 H   0  0  0  0  0  0  0  0  0  0  0  0
   11.4329   41.5332   31.4961 H   0  0  0  0  0  0  0  0  0  0  0  0
   11.6993   39.5059   30.3484 H   0  0  0  0  0  0  0  0  0  0  0  0
   10.1098   38.2798   32.6633 H   0  0  0  0  0  0  0  0  0  0  0  0
   13.6671   37.4511   31.2209 H   0  0  0  0  0  0  0  0  0  0  0  0
    8.9773   37.4209   30.9535 H   0  0  0  0  0  0  0  0  0  0  0  0
   11.2847   36.3053   32.5180 H   0  0  0  0  0  0  0  0  0  0  0  0
   10.8660   35.6941   30.4657 H   0  0  0  0  0  0  0  0  0  0  0  0
   12.3355   38.3583   34.7435 H   0  0  0  0  0  0  0  0  0  0  0  0
   16.7575   34.1784   32.4623 H   0  0  0  0  0  0  0  0  0  0  0  0
   15.3530   35.7358   37.5138 H   0  0  0  0  0  0  0  0  0  0  0  0
   16.6361   34.5316   37.1417 H   0  0  0  0  0  0  0  0  0  0  0  0
  1  2  2  0
  1  3  1  0
  3  4  1  0
  4  5  1  0
  6  1  1  0
  7  6  1  0
  6  8  1  0
  8  9  1  0
  9 10  2  0
 11  9  1  0
 10 12  1  0
 13 11  2  0
 12 14  2  0
 14 13  1  0
 14 15  1  0
 15 16  1  0
  4 17  2  0
  4 18  1  0
 19 18  1  0
 19 20  1  0
 20 21  1  0
 20 22  1  0
 21 23  1  0
 22 24  1  0
 22 25  1  0
 25 23  1  0
 23 26  1  0
 25 27  1  0
 28 26  1  0
 29 26  1  0
 30 28  2  0
 28 31  1  0
 32 29  2  0
 33 30  1  0
 31 34  2  0
 31 32  1  0
 35 33  2  0
 35 34  1  0
 34 36  1  0
  6 37  1  1
  7 38  1  0
  7 39  1  0
  8 40  1  0
  8 41  1  0
 10 42  1  0
 11 43  1  0
 12 44  1  0
 13 45  1  0
 16 46  1  0
 16 47  1  0
 16 48  1  0
 19 49  1  0
 19 50  1  0
 20 51  1  0
 22 52  1  0
 23 53  1  0
 24 54  1  0
 25 55  1  0
 27 56  1  0
 29 57  1  0
 33 58  1  0
 36 59  1  0
 36 60  1  0
M  CHG  1   5  -1
M  END
>  <EmbedRMS>  (115) 
0.09132975357967656

$$$$

     RDKit          3D

 60 63  0  0  0  0  0  0  0  0999 V2000
   10.2876   43.7724   33.7998 C   0  0  0  0  0  0  0  0  0  0  0  0
   11.4101   43.5905   34.3570 O   0  0  0  0  0  0  0  0  0  0  0  0
    9.3641   42.7339   33.7092 O   0  0  0  0  0  0  0  0  0  0  0  0
    9.8853   41.2350   34.2859 P   0  0  0  0  0  5  0  0  0  0  0  0
   10.3679   41.4675   35.8759 O   0  0  0  0  0  1  0  0  0  0  0  0
    9.9623   45.1043   33.2247 C   0  0  1  0  0  0  0  0  0  0  0  0
   11.0639   46.0310   33.4993 N   0  0  0  0  0  0  0  0  0  0  0  0
    9.6878   44.9762   31.7099 C   0  0  0  0  0  0  0  0  0  0  0  0
    9.2408   46.2846   31.1099 C   0  0  0  0  0  0  0  0  0  0  0  0
    7.9159   46.7184   31.2706 C   0  0  0  0  0  0  0  0  0  0  0  0
   10.1511   47.0992   30.4190 C   0  0  0  0  0  0  0  0  0  0  0  0
    7.5032   47.9430   30.7373 C   0  0  0  0  0  0  0  0  0  0  0  0
    9.7380   48.3236   29.8863 C   0  0  0  0  0  0  0  0  0  0  0  0
    8.4156   48.7563   30.0382 C   0  0  0  0  0  0  0  0  0  0  0  0
    8.0510   49.9928   29.4850 O   0  0  0  0  0  0  0  0  0  0  0  0
    6.7452   50.5549   29.5642 C   0  0  0  0  0  0  0  0  0  0  0  0
    8.8082   40.1917   34.2095 O   0  0  0  0  0  0  0  0  0  0  0  0
   11.2367   40.7929   33.3676 O   0  0  0  0  0  0  0  0  0  0  0  0
   10.9138   40.6893   31.9949 C   0  0  0  0  0  0  0  0  0  0  0  0
   11.5254   39.3878   31.4369 C   0  0  0  0  0  0  0  0  0  0  0  0
   12.7485   39.0900   32.0824 O   0  0  0  0  0  0  0  0  0  0  0  0
   10.6120   38.1897   31.6461 C   0  0  0  0  0  0  0  0  0  0  0  0
   12.9371   37.6833   32.0302 C   0  0  0  0  0  0  0  0  0  0  0  0
    9.6149   38.0841   30.6537 O   0  0  0  0  0  0  0  0  0  0  0  0
   11.5792   37.0141   31.7014 C   0  0  0  0  0  0  0  0  0  0  0  0
   13.4906   37.2172   33.3242 N   0  0  0  0  0  0  0  0  0  0  0  0
   11.6217   36.3256   30.4726 O   0  0  0  0  0  0  0  0  0  0  0  0
   14.4763   36.3268   33.5730 C   0  0  0  0  0  0  0  0  0  0  0  0
   13.1182   37.6310   34.5695 C   0  0  0  0  0  0  0  0  0  0  0  0
   15.2065   35.6138   32.6739 N   0  0  0  0  0  0  0  0  0  0  0  0
   14.6735   36.2270   34.9184 C   0  0  0  0  0  0  0  0  0  0  0  0
   13.8229   37.0451   35.5787 N   0  0  0  0  0  0  0  0  0  0  0  0
   16.1638   34.7594   33.1546 C   0  0  0  0  0  0  0  0  0  0  0  0
   15.6518   35.3489   35.4131 C   0  0  0  0  0  0  0  0  0  0  0  0
   16.3794   34.6308   34.5041 N   0  0  0  0  0  0  0  0  0  0  0  0
   15.9006   35.1931   36.8089 N   0  0  0  0  0  0  0  0  0  0  0  0
    9.0443   45.4724   33.7344 H   0  0  0  0  0  0  0  0  0  0  0  0
   11.8658   45.8305   32.8571 H   0  0  0  0  0  0  0  0  0  0  0  0
   10.7422   47.0072   33.3069 H   0  0  0  0  0  0  0  0  0  0  0  0
    8.8904   44.2197   31.5377 H   0  0  0  0  0  0  0  0  0  0  0  0
   10.5975   44.6021   31.1891 H   0  0  0  0  0  0  0  0  0  0  0  0
    7.2031   46.1076   31.8110 H   0  0  0  0  0  0  0  0  0  0  0  0
   11.1813   46.7888   30.2959 H   0  0  0  0  0  0  0  0  0  0  0  0
    6.4752   48.2485   30.8760 H   0  0  0  0  0  0  0  0  0  0  0  0
   10.4502   48.9415   29.3542 H   0  0  0  0  0  0  0  0  0  0  0  0
    6.0104   49.8849   29.0699 H   0  0  0  0  0  0  0  0  0  0  0  0
    6.4625   50.7155   30.6261 H   0  0  0  0  0  0  0  0  0  0  0  0
    6.7398   51.5341   29.0432 H   0  0  0  0  0  0  0  0  0  0  0  0
    9.8234   40.7185   31.7594 H   0  0  0  0  0  0  0  0  0  0  0  0
   11.3794   41.5518   31.4715 H   0  0  0  0  0  0  0  0  0  0  0  0
   11.7286   39.5295   30.3508 H   0  0  0  0  0  0  0  0  0  0  0  0
   10.1135   38.2721   32.6379 H   0  0  0  0  0  0  0  0  0  0  0  0
   13.6723   37.4646   31.2240 H   0  0  0  0  0  0  0  0  0  0  0  0
   10.0536   38.1090   29.7638 H   0  0  0  0  0  0  0  0  0  0  0  0
   11.2645   36.3139   32.5108 H   0  0  0  0  0  0  0  0  0  0  0  0
   12.1552   35.5037   30.6317 H   0  0  0  0  0  0  0  0  0  0  0  0
   12.3362   38.3588   34.7452 H   0  0  0  0  0  0  0  0  0  0  0  0
   16.7572   34.1789   32.4618 H   0  0  0  0  0  0  0  0  0  0  0  0
   15.3533   35.7353   37.5139 H   0  0  0  0  0  0  0  0  0  0  0  0
   16.6366   34.5314   37.1414 H   0  0  0  0  0  0  0  0  0  0  0  0
  1  2  2  0
  1  3  1  0
  3  4  1  0
  4  5  1  0
  6  1  1  0
  7  6  1  0
  6  8  1  0
  8  9  1  0
  9 10  2  0
 11  9  1  0
 10 12  1  0
 13 11  2  0
 12 14  2  0
 14 13  1  0
 14 15  1  0
 15 16  1  0
  4 17  2  0
  4 18  1  0
 19 18  1  0
 19 20  1  0
 20 21  1  0
 20 22  1  0
 21 23  1  0
 22 24  1  0
 22 25  1  0
 25 23  1  0
 23 26  1  0
 25 27  1  0
 28 26  1  0
 29 26  1  0
 30 28  2  0
 28 31  1  0
 32 29  2  0
 33 30  1  0
 31 34  2  0
 31 32  1  0
 35 33  2  0
 35 34  1  0
 34 36  1  0
  6 37  1  1
  7 38  1  0
  7 39  1  0
  8 40  1  0
  8 41  1  0
 10 42  1  0
 11 43  1  0
 12 44  1  0
 13 45  1  0
 16 46  1  0
 16 47  1  0
 16 48  1  0
 19 49  1  0
 19 50  1  0
 20 51  1  0
 22 52  1  0
 23 53  1  0
 24 54  1  0
 25 55  1  0
 27 56  1  0
 29 57  1  0
 33 58  1  0
 36 59  1  0
 36 60  1  0
M  CHG  1   5  -1
M  END
>  <EmbedRMS>  (116) 
0.08753303485758172

$$$$

     RDKit          3D

 60 63  0  0  0  0  0  0  0  0999 V2000
   10.2879   43.7719   33.8024 C   0  0  0  0  0  0  0  0  0  0  0  0
   11.4129   43.5866   34.3534 O   0  0  0  0  0  0  0  0  0  0  0  0
    9.3633   42.7344   33.7121 O   0  0  0  0  0  0  0  0  0  0  0  0
    9.8852   41.2346   34.2857 P   0  0  0  0  0  5  0  0  0  0  0  0
   10.3686   41.4660   35.8757 O   0  0  0  0  0  1  0  0  0  0  0  0
    9.9689   45.1018   33.2140 C   0  0  1  0  0  0  0  0  0  0  0  0
   11.0575   46.0377   33.5062 N   0  0  0  0  0  0  0  0  0  0  0  0
    9.7792   44.9513   31.6901 C   0  0  0  0  0  0  0  0  0  0  0  0
    9.2566   46.2165   31.0579 C   0  0  0  0  0  0  0  0  0  0  0  0
    7.9013   46.5586   31.1813 C   0  0  0  0  0  0  0  0  0  0  0  0
   10.1217   47.0776   30.3646 C   0  0  0  0  0  0  0  0  0  0  0  0
    7.4171   47.7398   30.6123 C   0  0  0  0  0  0  0  0  0  0  0  0
    9.6368   48.2592   29.7960 C   0  0  0  0  0  0  0  0  0  0  0  0
    8.2756   48.5986   29.9163 C   0  0  0  0  0  0  0  0  0  0  0  0
    7.7408   49.7720   29.3640 O   0  0  0  0  0  0  0  0  0  0  0  0
    8.4960   50.7331   28.6337 C   0  0  0  0  0  0  0  0  0  0  0  0
    8.8079   40.1915   34.2092 O   0  0  0  0  0  0  0  0  0  0  0  0
   11.2365   40.7937   33.3657 O   0  0  0  0  0  0  0  0  0  0  0  0
   10.9125   40.6863   31.9933 C   0  0  0  0  0  0  0  0  0  0  0  0
   11.5158   39.3782   31.4399 C   0  0  0  0  0  0  0  0  0  0  0  0
   12.7465   39.0863   32.0746 O   0  0  0  0  0  0  0  0  0  0  0  0
   10.6043   38.1871   31.6670 C   0  0  0  0  0  0  0  0  0  0  0  0
   12.9343   37.6798   32.0284 C   0  0  0  0  0  0  0  0  0  0  0  0
    9.6377   38.0920   30.6487 O   0  0  0  0  0  0  0  0  0  0  0  0
   11.5760   37.0134   31.7057 C   0  0  0  0  0  0  0  0  0  0  0  0
   13.4909   37.2180   33.3233 N   0  0  0  0  0  0  0  0  0  0  0  0
   11.6234   36.3375   30.4685 O   0  0  0  0  0  0  0  0  0  0  0  0
   14.4764   36.3273   33.5727 C   0  0  0  0  0  0  0  0  0  0  0  0
   13.1182   37.6317   34.5686 C   0  0  0  0  0  0  0  0  0  0  0  0
   15.2065   35.6139   32.6738 N   0  0  0  0  0  0  0  0  0  0  0  0
   14.6735   36.2276   34.9181 C   0  0  0  0  0  0  0  0  0  0  0  0
   13.8227   37.0458   35.5781 N   0  0  0  0  0  0  0  0  0  0  0  0
   16.1637   34.7593   33.1547 C   0  0  0  0  0  0  0  0  0  0  0  0
   15.6516   35.3493   35.4130 C   0  0  0  0  0  0  0  0  0  0  0  0
   16.3792   34.6310   34.5042 N   0  0  0  0  0  0  0  0  0  0  0  0
   15.9002   35.1934   36.8089 N   0  0  0  0  0  0  0  0  0  0  0  0
    9.0244   45.4685   33.6760 H   0  0  0  0  0  0  0  0  0  0  0  0
   11.1201   46.1579   34.5441 H   0  0  0  0  0  0  0  0  0  0  0  0
   10.7940   46.9817   33.1426 H   0  0  0  0  0  0  0  0  0  0  0  0
   10.7433   44.6523   31.2212 H   0  0  0  0  0  0  0  0  0  0  0  0
    9.0544   44.1339   31.4784 H   0  0  0  0  0  0  0  0  0  0  0  0
    7.2205   45.9103   31.7191 H   0  0  0  0  0  0  0  0  0  0  0  0
   11.1731   46.8365   30.2677 H   0  0  0  0  0  0  0  0  0  0  0  0
    6.3688   47.9905   30.7139 H   0  0  0  0  0  0  0  0  0  0  0  0
   10.3280   48.9015   29.2676 H   0  0  0  0  0  0  0  0  0  0  0  0
    8.9380   50.2642   27.7292 H   0  0  0  0  0  0  0  0  0  0  0  0
    7.8239   51.5559   28.3149 H   0  0  0  0  0  0  0  0  0  0  0  0
    9.2973   51.1567   29.2753 H   0  0  0  0  0  0  0  0  0  0  0  0
   11.3835   41.5432   31.4658 H   0  0  0  0  0  0  0  0  0  0  0  0
    9.8222   40.7218   31.7582 H   0  0  0  0  0  0  0  0  0  0  0  0
   11.6981   39.5023   30.3473 H   0  0  0  0  0  0  0  0  0  0  0  0
   10.1090   38.2773   32.6628 H   0  0  0  0  0  0  0  0  0  0  0  0
   13.6670   37.4557   31.2213 H   0  0  0  0  0  0  0  0  0  0  0  0
    8.9778   37.4159   30.9531 H   0  0  0  0  0  0  0  0  0  0  0  0
   11.2860   36.3046   32.5178 H   0  0  0  0  0  0  0  0  0  0  0  0
   10.8690   35.6922   30.4658 H   0  0  0  0  0  0  0  0  0  0  0  0
   12.3356   38.3588   34.7441 H   0  0  0  0  0  0  0  0  0  0  0  0
   16.7570   34.1787   32.4620 H   0  0  0  0  0  0  0  0  0  0  0  0
   15.3530   35.7357   37.5137 H   0  0  0  0  0  0  0  0  0  0  0  0
   16.6360   34.5315   37.1414 H   0  0  0  0  0  0  0  0  0  0  0  0
  1  2  2  0
  1  3  1  0
  3  4  1  0
  4  5  1  0
  6  1  1  0
  7  6  1  0
  6  8  1  0
  8  9  1  0
  9 10  2  0
 11  9  1  0
 10 12  1  0
 13 11  2  0
 12 14  2  0
 14 13  1  0
 14 15  1  0
 15 16  1  0
  4 17  2  0
  4 18  1  0
 19 18  1  0
 19 20  1  0
 20 21  1  0
 20 22  1  0
 21 23  1  0
 22 24  1  0
 22 25  1  0
 25 23  1  0
 23 26  1  0
 25 27  1  0
 28 26  1  0
 29 26  1  0
 30 28  2  0
 28 31  1  0
 32 29  2  0
 33 30  1  0
 31 34  2  0
 31 32  1  0
 35 33  2  0
 35 34  1  0
 34 36  1  0
  6 37  1  1
  7 38  1  0
  7 39  1  0
  8 40  1  0
  8 41  1  0
 10 42  1  0
 11 43  1  0
 12 44  1  0
 13 45  1  0
 16 46  1  0
 16 47  1  0
 16 48  1  0
 19 49  1  0
 19 50  1  0
 20 51  1  0
 22 52  1  0
 23 53  1  0
 24 54  1  0
 25 55  1  0
 27 56  1  0
 29 57  1  0
 33 58  1  0
 36 59  1  0
 36 60  1  0
M  CHG  1   5  -1
M  END
>  <EmbedRMS>  (117) 
0.08894417782425801

$$$$

     RDKit          3D

 60 63  0  0  0  0  0  0  0  0999 V2000
   10.2871   43.7692   33.7899 C   0  0  0  0  0  0  0  0  0  0  0  0
   11.4140   43.5806   34.3362 O   0  0  0  0  0  0  0  0  0  0  0  0
    9.3643   42.7311   33.6958 O   0  0  0  0  0  0  0  0  0  0  0  0
    9.8820   41.2340   34.2840 P   0  0  0  0  0  5  0  0  0  0  0  0
   10.3606   41.4724   35.8747 O   0  0  0  0  0  1  0  0  0  0  0  0
    9.9371   45.1296   33.2921 C   0  0  1  0  0  0  0  0  0  0  0  0
   11.0775   46.0313   33.4634 N   0  0  0  0  0  0  0  0  0  0  0  0
    9.4244   45.1267   31.8312 C   0  0  0  0  0  0  0  0  0  0  0  0
   10.2800   44.3555   30.8493 C   0  0  0  0  0  0  0  0  0  0  0  0
    9.7145   43.3088   30.1010 C   0  0  0  0  0  0  0  0  0  0  0  0
   11.6132   44.7234   30.6042 C   0  0  0  0  0  0  0  0  0  0  0  0
   10.4756   42.6255   29.1487 C   0  0  0  0  0  0  0  0  0  0  0  0
   12.3790   44.0284   29.6628 C   0  0  0  0  0  0  0  0  0  0  0  0
   11.8137   42.9682   28.9294 C   0  0  0  0  0  0  0  0  0  0  0  0
   12.5424   42.2356   27.9809 O   0  0  0  0  0  0  0  0  0  0  0  0
   13.9149   42.4585   27.6753 C   0  0  0  0  0  0  0  0  0  0  0  0
    8.8047   40.1912   34.2086 O   0  0  0  0  0  0  0  0  0  0  0  0
   11.2374   40.7806   33.3791 O   0  0  0  0  0  0  0  0  0  0  0  0
   10.9312   40.6918   32.0035 C   0  0  0  0  0  0  0  0  0  0  0  0
   11.5205   39.3835   31.4430 C   0  0  0  0  0  0  0  0  0  0  0  0
   12.7529   39.0877   32.0741 O   0  0  0  0  0  0  0  0  0  0  0  0
   10.6042   38.1924   31.6663 C   0  0  0  0  0  0  0  0  0  0  0  0
   12.9405   37.6819   32.0272 C   0  0  0  0  0  0  0  0  0  0  0  0
    9.6385   38.0821   30.6475 O   0  0  0  0  0  0  0  0  0  0  0  0
   11.5796   37.0212   31.6938 C   0  0  0  0  0  0  0  0  0  0  0  0
   13.4900   37.2168   33.3236 N   0  0  0  0  0  0  0  0  0  0  0  0
   11.6103   36.3200   30.4682 O   0  0  0  0  0  0  0  0  0  0  0  0
   14.4759   36.3267   33.5731 C   0  0  0  0  0  0  0  0  0  0  0  0
   13.1175   37.6314   34.5685 C   0  0  0  0  0  0  0  0  0  0  0  0
   15.2065   35.6138   32.6743 N   0  0  0  0  0  0  0  0  0  0  0  0
   14.6730   36.2273   34.9185 C   0  0  0  0  0  0  0  0  0  0  0  0
   13.8221   37.0457   35.5782 N   0  0  0  0  0  0  0  0  0  0  0  0
   16.1639   34.7595   33.1550 C   0  0  0  0  0  0  0  0  0  0  0  0
   15.6515   35.3493   35.4134 C   0  0  0  0  0  0  0  0  0  0  0  0
   16.3792   34.6311   34.5045 N   0  0  0  0  0  0  0  0  0  0  0  0
   15.9002   35.1935   36.8092 N   0  0  0  0  0  0  0  0  0  0  0  0
    9.1038   45.5036   33.9295 H   0  0  0  0  0  0  0  0  0  0  0  0
   11.2567   46.1522   34.4877 H   0  0  0  0  0  0  0  0  0  0  0  0
   10.8074   46.9805   33.1166 H   0  0  0  0  0  0  0  0  0  0  0  0
    9.3246   46.1723   31.4679 H   0  0  0  0  0  0  0  0  0  0  0  0
    8.3924   44.7111   31.8370 H   0  0  0  0  0  0  0  0  0  0  0  0
    8.6830   43.0168   30.2540 H   0  0  0  0  0  0  0  0  0  0  0  0
   12.0630   45.5537   31.1305 H   0  0  0  0  0  0  0  0  0  0  0  0
   10.0273   41.8145   28.5888 H   0  0  0  0  0  0  0  0  0  0  0  0
   13.4059   44.3290   29.5070 H   0  0  0  0  0  0  0  0  0  0  0  0
   14.2362   41.7327   26.9005 H   0  0  0  0  0  0  0  0  0  0  0  0
   14.0559   43.4865   27.2798 H   0  0  0  0  0  0  0  0  0  0  0  0
   14.5370   42.3089   28.5829 H   0  0  0  0  0  0  0  0  0  0  0  0
    9.8479   40.7621   31.7490 H   0  0  0  0  0  0  0  0  0  0  0  0
   11.4446   41.5372   31.5039 H   0  0  0  0  0  0  0  0  0  0  0  0
   11.6998   39.5141   30.3506 H   0  0  0  0  0  0  0  0  0  0  0  0
   10.1125   38.2617   32.6660 H   0  0  0  0  0  0  0  0  0  0  0  0
   13.6799   37.4594   31.2262 H   0  0  0  0  0  0  0  0  0  0  0  0
    8.9087   38.7142   30.8765 H   0  0  0  0  0  0  0  0  0  0  0  0
   11.2815   36.3073   32.4931 H   0  0  0  0  0  0  0  0  0  0  0  0
   11.8839   36.9597   29.7593 H   0  0  0  0  0  0  0  0  0  0  0  0
   12.3359   38.3596   34.7437 H   0  0  0  0  0  0  0  0  0  0  0  0
   16.7575   34.1791   32.4623 H   0  0  0  0  0  0  0  0  0  0  0  0
   15.3528   35.7357   37.5140 H   0  0  0  0  0  0  0  0  0  0  0  0
   16.6362   34.5319   37.1417 H   0  0  0  0  0  0  0  0  0  0  0  0
  1  2  2  0
  1  3  1  0
  3  4  1  0
  4  5  1  0
  6  1  1  0
  7  6  1  0
  6  8  1  0
  8  9  1  0
  9 10  2  0
 11  9  1  0
 10 12  1  0
 13 11  2  0
 12 14  2  0
 14 13  1  0
 14 15  1  0
 15 16  1  0
  4 17  2  0
  4 18  1  0
 19 18  1  0
 19 20  1  0
 20 21  1  0
 20 22  1  0
 21 23  1  0
 22 24  1  0
 22 25  1  0
 25 23  1  0
 23 26  1  0
 25 27  1  0
 28 26  1  0
 29 26  1  0
 30 28  2  0
 28 31  1  0
 32 29  2  0
 33 30  1  0
 31 34  2  0
 31 32  1  0
 35 33  2  0
 35 34  1  0
 34 36  1  0
  6 37  1  1
  7 38  1  0
  7 39  1  0
  8 40  1  0
  8 41  1  0
 10 42  1  0
 11 43  1  0
 12 44  1  0
 13 45  1  0
 16 46  1  0
 16 47  1  0
 16 48  1  0
 19 49  1  0
 19 50  1  0
 20 51  1  0
 22 52  1  0
 23 53  1  0
 24 54  1  0
 25 55  1  0
 27 56  1  0
 29 57  1  0
 33 58  1  0
 36 59  1  0
 36 60  1  0
M  CHG  1   5  -1
M  END
>  <EmbedRMS>  (118) 
0.09068622679652649

$$$$

     RDKit          3D

 60 63  0  0  0  0  0  0  0  0999 V2000
   10.2924   43.7670   33.7916 C   0  0  0  0  0  0  0  0  0  0  0  0
   11.4137   43.5794   34.3491 O   0  0  0  0  0  0  0  0  0  0  0  0
    9.3643   42.7325   33.7096 O   0  0  0  0  0  0  0  0  0  0  0  0
    9.8836   41.2336   34.2870 P   0  0  0  0  0  5  0  0  0  0  0  0
   10.3658   41.4669   35.8770 O   0  0  0  0  0  1  0  0  0  0  0  0
    9.9654   45.1142   33.2333 C   0  0  1  0  0  0  0  0  0  0  0  0
   11.0558   46.0545   33.5000 N   0  0  0  0  0  0  0  0  0  0  0  0
    9.7004   45.0686   31.7135 C   0  0  0  0  0  0  0  0  0  0  0  0
    8.4837   44.2518   31.3479 C   0  0  0  0  0  0  0  0  0  0  0  0
    7.2038   44.6547   31.7610 C   0  0  0  0  0  0  0  0  0  0  0  0
    8.6192   43.0797   30.5878 C   0  0  0  0  0  0  0  0  0  0  0  0
    6.0841   43.8789   31.4478 C   0  0  0  0  0  0  0  0  0  0  0  0
    7.5002   42.3020   30.2783 C   0  0  0  0  0  0  0  0  0  0  0  0
    6.2206   42.6960   30.7124 C   0  0  0  0  0  0  0  0  0  0  0  0
    5.0681   41.9464   30.4340 O   0  0  0  0  0  0  0  0  0  0  0  0
    5.0629   40.7207   29.7093 C   0  0  0  0  0  0  0  0  0  0  0  0
    8.8060   40.1911   34.2097 O   0  0  0  0  0  0  0  0  0  0  0  0
   11.2359   40.7899   33.3709 O   0  0  0  0  0  0  0  0  0  0  0  0
   10.9142   40.6876   31.9986 C   0  0  0  0  0  0  0  0  0  0  0  0
   11.5268   39.3896   31.4386 C   0  0  0  0  0  0  0  0  0  0  0  0
   12.7507   39.0915   32.0844 O   0  0  0  0  0  0  0  0  0  0  0  0
   10.6121   38.1911   31.6453 C   0  0  0  0  0  0  0  0  0  0  0  0
   12.9429   37.6852   32.0296 C   0  0  0  0  0  0  0  0  0  0  0  0
    9.6068   38.0861   30.6603 O   0  0  0  0  0  0  0  0  0  0  0  0
   11.5845   37.0184   31.6877 C   0  0  0  0  0  0  0  0  0  0  0  0
   13.4898   37.2161   33.3250 N   0  0  0  0  0  0  0  0  0  0  0  0
   11.6202   36.3066   30.4688 O   0  0  0  0  0  0  0  0  0  0  0  0
   14.4758   36.3262   33.5739 C   0  0  0  0  0  0  0  0  0  0  0  0
   13.1175   37.6306   34.5699 C   0  0  0  0  0  0  0  0  0  0  0  0
   15.2065   35.6138   32.6746 N   0  0  0  0  0  0  0  0  0  0  0  0
   14.6731   36.2267   34.9191 C   0  0  0  0  0  0  0  0  0  0  0  0
   13.8224   37.0450   35.5792 N   0  0  0  0  0  0  0  0  0  0  0  0
   16.1640   34.7596   33.1551 C   0  0  0  0  0  0  0  0  0  0  0  0
   15.6518   35.3489   35.4136 C   0  0  0  0  0  0  0  0  0  0  0  0
   16.3795   34.6310   34.5046 N   0  0  0  0  0  0  0  0  0  0  0  0
   15.9006   35.1931   36.8094 N   0  0  0  0  0  0  0  0  0  0  0  0
    9.0548   45.4884   33.7495 H   0  0  0  0  0  0  0  0  0  0  0  0
   11.9491   45.7023   33.0825 H   0  0  0  0  0  0  0  0  0  0  0  0
   11.1881   46.1520   34.5337 H   0  0  0  0  0  0  0  0  0  0  0  0
    9.5425   46.1055   31.3444 H   0  0  0  0  0  0  0  0  0  0  0  0
   10.6042   44.6779   31.1949 H   0  0  0  0  0  0  0  0  0  0  0  0
    7.0729   45.5662   32.3304 H   0  0  0  0  0  0  0  0  0  0  0  0
    9.5927   42.7630   30.2369 H   0  0  0  0  0  0  0  0  0  0  0  0
    5.1043   44.1969   31.7812 H   0  0  0  0  0  0  0  0  0  0  0  0
    7.6415   41.3977   29.7023 H   0  0  0  0  0  0  0  0  0  0  0  0
    4.0222   40.3429   29.6433 H   0  0  0  0  0  0  0  0  0  0  0  0
    5.6836   39.9640   30.2345 H   0  0  0  0  0  0  0  0  0  0  0  0
    5.4481   40.8838   28.6806 H   0  0  0  0  0  0  0  0  0  0  0  0
   11.3797   41.5510   31.4774 H   0  0  0  0  0  0  0  0  0  0  0  0
    9.8238   40.7087   31.7650 H   0  0  0  0  0  0  0  0  0  0  0  0
   11.7311   39.5352   30.3533 H   0  0  0  0  0  0  0  0  0  0  0  0
   10.1211   38.2670   32.6414 H   0  0  0  0  0  0  0  0  0  0  0  0
   13.6882   37.4709   31.2320 H   0  0  0  0  0  0  0  0  0  0  0  0
   10.0250   38.1788   29.7657 H   0  0  0  0  0  0  0  0  0  0  0  0
   11.2797   36.3118   32.4910 H   0  0  0  0  0  0  0  0  0  0  0  0
   11.9862   36.9109   29.7711 H   0  0  0  0  0  0  0  0  0  0  0  0
   12.3365   38.3594   34.7453 H   0  0  0  0  0  0  0  0  0  0  0  0
   16.7577   34.1794   32.4622 H   0  0  0  0  0  0  0  0  0  0  0  0
   16.6368   34.5316   37.1418 H   0  0  0  0  0  0  0  0  0  0  0  0
   15.3532   35.7351   37.5143 H   0  0  0  0  0  0  0  0  0  0  0  0
  1  2  2  0
  1  3  1  0
  3  4  1  0
  4  5  1  0
  6  1  1  0
  7  6  1  0
  6  8  1  0
  8  9  1  0
  9 10  2  0
 11  9  1  0
 10 12  1  0
 13 11  2  0
 12 14  2  0
 14 13  1  0
 14 15  1  0
 15 16  1  0
  4 17  2  0
  4 18  1  0
 19 18  1  0
 19 20  1  0
 20 21  1  0
 20 22  1  0
 21 23  1  0
 22 24  1  0
 22 25  1  0
 25 23  1  0
 23 26  1  0
 25 27  1  0
 28 26  1  0
 29 26  1  0
 30 28  2  0
 28 31  1  0
 32 29  2  0
 33 30  1  0
 31 34  2  0
 31 32  1  0
 35 33  2  0
 35 34  1  0
 34 36  1  0
  6 37  1  1
  7 38  1  0
  7 39  1  0
  8 40  1  0
  8 41  1  0
 10 42  1  0
 11 43  1  0
 12 44  1  0
 13 45  1  0
 16 46  1  0
 16 47  1  0
 16 48  1  0
 19 49  1  0
 19 50  1  0
 20 51  1  0
 22 52  1  0
 23 53  1  0
 24 54  1  0
 25 55  1  0
 27 56  1  0
 29 57  1  0
 33 58  1  0
 36 59  1  0
 36 60  1  0
M  CHG  1   5  -1
M  END
>  <EmbedRMS>  (119) 
0.08810681078987027

$$$$

     RDKit          3D

 60 63  0  0  0  0  0  0  0  0999 V2000
   10.2924   43.7669   33.7916 C   0  0  0  0  0  0  0  0  0  0  0  0
   11.4137   43.5794   34.3491 O   0  0  0  0  0  0  0  0  0  0  0  0
    9.3646   42.7323   33.7092 O   0  0  0  0  0  0  0  0  0  0  0  0
    9.8844   41.2332   34.2856 P   0  0  0  0  0  5  0  0  0  0  0  0
   10.3669   41.4664   35.8756 O   0  0  0  0  0  1  0  0  0  0  0  0
    9.9652   45.1143   33.2339 C   0  0  1  0  0  0  0  0  0  0  0  0
   11.0559   46.0545   33.4997 N   0  0  0  0  0  0  0  0  0  0  0  0
    9.6985   45.0692   31.7143 C   0  0  0  0  0  0  0  0  0  0  0  0
    8.4809   44.2532   31.3501 C   0  0  0  0  0  0  0  0  0  0  0  0
    7.2017   44.6575   31.7637 C   0  0  0  0  0  0  0  0  0  0  0  0
    8.6152   43.0799   30.5915 C   0  0  0  0  0  0  0  0  0  0  0  0
    6.0812   43.8819   31.4526 C   0  0  0  0  0  0  0  0  0  0  0  0
    7.4955   42.3024   30.2842 C   0  0  0  0  0  0  0  0  0  0  0  0
    6.2165   42.6977   30.7189 C   0  0  0  0  0  0  0  0  0  0  0  0
    5.0634   41.9481   30.4430 O   0  0  0  0  0  0  0  0  0  0  0  0
    5.0570   40.7209   29.7210 C   0  0  0  0  0  0  0  0  0  0  0  0
    8.8062   40.1911   34.2091 O   0  0  0  0  0  0  0  0  0  0  0  0
   11.2362   40.7898   33.3679 O   0  0  0  0  0  0  0  0  0  0  0  0
   10.9130   40.6828   31.9957 C   0  0  0  0  0  0  0  0  0  0  0  0
   11.5164   39.3770   31.4405 C   0  0  0  0  0  0  0  0  0  0  0  0
   12.7472   39.0853   32.0744 O   0  0  0  0  0  0  0  0  0  0  0  0
   10.6046   38.1863   31.6671 C   0  0  0  0  0  0  0  0  0  0  0  0
   12.9345   37.6790   32.0283 C   0  0  0  0  0  0  0  0  0  0  0  0
    9.6379   38.0922   30.6486 O   0  0  0  0  0  0  0  0  0  0  0  0
   11.5761   37.0127   31.7054 C   0  0  0  0  0  0  0  0  0  0  0  0
   13.4908   37.2175   33.3234 N   0  0  0  0  0  0  0  0  0  0  0  0
   11.6234   36.3372   30.4681 O   0  0  0  0  0  0  0  0  0  0  0  0
   14.4765   36.3271   33.5727 C   0  0  0  0  0  0  0  0  0  0  0  0
   13.1181   37.6314   34.5686 C   0  0  0  0  0  0  0  0  0  0  0  0
   15.2066   35.6137   32.6739 N   0  0  0  0  0  0  0  0  0  0  0  0
   14.6736   36.2275   34.9182 C   0  0  0  0  0  0  0  0  0  0  0  0
   13.8227   37.0457   35.5781 N   0  0  0  0  0  0  0  0  0  0  0  0
   16.1638   34.7592   33.1548 C   0  0  0  0  0  0  0  0  0  0  0  0
   15.6517   35.3492   35.4131 C   0  0  0  0  0  0  0  0  0  0  0  0
   16.3793   34.6309   34.5043 N   0  0  0  0  0  0  0  0  0  0  0  0
   15.9003   35.1934   36.8090 N   0  0  0  0  0  0  0  0  0  0  0  0
    9.0551   45.4886   33.7510 H   0  0  0  0  0  0  0  0  0  0  0  0
   11.9488   45.7022   33.0815 H   0  0  0  0  0  0  0  0  0  0  0  0
   11.1891   46.1518   34.5333 H   0  0  0  0  0  0  0  0  0  0  0  0
   10.6016   44.6782   31.1946 H   0  0  0  0  0  0  0  0  0  0  0  0
    9.5407   46.1063   31.3456 H   0  0  0  0  0  0  0  0  0  0  0  0
    7.0719   45.5698   32.3322 H   0  0  0  0  0  0  0  0  0  0  0  0
    9.5882   42.7622   30.2406 H   0  0  0  0  0  0  0  0  0  0  0  0
    5.1019   44.2009   31.7865 H   0  0  0  0  0  0  0  0  0  0  0  0
    7.6357   41.3971   29.7095 H   0  0  0  0  0  0  0  0  0  0  0  0
    4.0160   40.3433   29.6568 H   0  0  0  0  0  0  0  0  0  0  0  0
    5.6778   39.9651   30.2472 H   0  0  0  0  0  0  0  0  0  0  0  0
    5.4412   40.8815   28.6915 H   0  0  0  0  0  0  0  0  0  0  0  0
    9.8225   40.7104   31.7630 H   0  0  0  0  0  0  0  0  0  0  0  0
   11.3840   41.5400   31.4695 H   0  0  0  0  0  0  0  0  0  0  0  0
   11.6980   39.5026   30.3480 H   0  0  0  0  0  0  0  0  0  0  0  0
   10.1092   38.2759   32.6630 H   0  0  0  0  0  0  0  0  0  0  0  0
   13.6673   37.4546   31.2214 H   0  0  0  0  0  0  0  0  0  0  0  0
    8.9750   37.4198   30.9545 H   0  0  0  0  0  0  0  0  0  0  0  0
   11.2862   36.3036   32.5172 H   0  0  0  0  0  0  0  0  0  0  0  0
   10.8680   35.6931   30.4646 H   0  0  0  0  0  0  0  0  0  0  0  0
   12.3355   38.3585   34.7440 H   0  0  0  0  0  0  0  0  0  0  0  0
   16.7572   34.1786   32.4621 H   0  0  0  0  0  0  0  0  0  0  0  0
   16.6361   34.5315   37.1416 H   0  0  0  0  0  0  0  0  0  0  0  0
   15.3530   35.7357   37.5138 H   0  0  0  0  0  0  0  0  0  0  0  0
  1  2  2  0
  1  3  1  0
  3  4  1  0
  4  5  1  0
  6  1  1  0
  7  6  1  0
  6  8  1  0
  8  9  1  0
  9 10  2  0
 11  9  1  0
 10 12  1  0
 13 11  2  0
 12 14  2  0
 14 13  1  0
 14 15  1  0
 15 16  1  0
  4 17  2  0
  4 18  1  0
 19 18  1  0
 19 20  1  0
 20 21  1  0
 20 22  1  0
 21 23  1  0
 22 24  1  0
 22 25  1  0
 25 23  1  0
 23 26  1  0
 25 27  1  0
 28 26  1  0
 29 26  1  0
 30 28  2  0
 28 31  1  0
 32 29  2  0
 33 30  1  0
 31 34  2  0
 31 32  1  0
 35 33  2  0
 35 34  1  0
 34 36  1  0
  6 37  1  1
  7 38  1  0
  7 39  1  0
  8 40  1  0
  8 41  1  0
 10 42  1  0
 11 43  1  0
 12 44  1  0
 13 45  1  0
 16 46  1  0
 16 47  1  0
 16 48  1  0
 19 49  1  0
 19 50  1  0
 20 51  1  0
 22 52  1  0
 23 53  1  0
 24 54  1  0
 25 55  1  0
 27 56  1  0
 29 57  1  0
 33 58  1  0
 36 59  1  0
 36 60  1  0
M  CHG  1   5  -1
M  END
>  <EmbedRMS>  (120) 
0.09008790318845933

$$$$

     RDKit          3D

 60 63  0  0  0  0  0  0  0  0999 V2000
   10.2903   43.7683   33.8033 C   0  0  0  0  0  0  0  0  0  0  0  0
   11.4117   43.5808   34.3603 O   0  0  0  0  0  0  0  0  0  0  0  0
    9.3641   42.7329   33.7099 O   0  0  0  0  0  0  0  0  0  0  0  0
    9.8840   41.2334   34.2858 P   0  0  0  0  0  5  0  0  0  0  0  0
   10.3668   41.4655   35.8759 O   0  0  0  0  0  1  0  0  0  0  0  0
    9.9697   45.1050   33.2282 C   0  0  1  0  0  0  0  0  0  0  0  0
   11.0569   46.0521   33.4894 N   0  0  0  0  0  0  0  0  0  0  0  0
    9.7169   44.9856   31.7144 C   0  0  0  0  0  0  0  0  0  0  0  0
    9.2990   46.3067   31.1215 C   0  0  0  0  0  0  0  0  0  0  0  0
    7.9634   46.7283   31.2073 C   0  0  0  0  0  0  0  0  0  0  0  0
   10.2473   47.1478   30.5189 C   0  0  0  0  0  0  0  0  0  0  0  0
    7.5790   47.9653   30.6824 C   0  0  0  0  0  0  0  0  0  0  0  0
    9.8624   48.3853   29.9941 C   0  0  0  0  0  0  0  0  0  0  0  0
    8.5199   48.8028   30.0720 C   0  0  0  0  0  0  0  0  0  0  0  0
    8.0838   50.0341   29.5607 O   0  0  0  0  0  0  0  0  0  0  0  0
    8.9294   50.9819   28.9171 C   0  0  0  0  0  0  0  0  0  0  0  0
    8.8066   40.1905   34.2089 O   0  0  0  0  0  0  0  0  0  0  0  0
   11.2356   40.7927   33.3671 O   0  0  0  0  0  0  0  0  0  0  0  0
   10.9121   40.6870   31.9947 C   0  0  0  0  0  0  0  0  0  0  0  0
   11.5163   39.3804   31.4412 C   0  0  0  0  0  0  0  0  0  0  0  0
   12.7482   39.0893   32.0767 O   0  0  0  0  0  0  0  0  0  0  0  0
   10.6048   38.1880   31.6659 C   0  0  0  0  0  0  0  0  0  0  0  0
   12.9410   37.6834   32.0279 C   0  0  0  0  0  0  0  0  0  0  0  0
    9.6357   38.0932   30.6501 O   0  0  0  0  0  0  0  0  0  0  0  0
   11.5826   37.0183   31.6937 C   0  0  0  0  0  0  0  0  0  0  0  0
   13.4908   37.2179   33.3239 N   0  0  0  0  0  0  0  0  0  0  0  0
   11.6141   36.3183   30.4676 O   0  0  0  0  0  0  0  0  0  0  0  0
   14.4762   36.3271   33.5732 C   0  0  0  0  0  0  0  0  0  0  0  0
   13.1179   37.6318   34.5689 C   0  0  0  0  0  0  0  0  0  0  0  0
   15.2066   35.6141   32.6743 N   0  0  0  0  0  0  0  0  0  0  0  0
   14.6731   36.2273   34.9186 C   0  0  0  0  0  0  0  0  0  0  0  0
   13.8223   37.0456   35.5785 N   0  0  0  0  0  0  0  0  0  0  0  0
   16.1638   34.7596   33.1550 C   0  0  0  0  0  0  0  0  0  0  0  0
   15.6515   35.3491   35.4134 C   0  0  0  0  0  0  0  0  0  0  0  0
   16.3792   34.6310   34.5045 N   0  0  0  0  0  0  0  0  0  0  0  0
   15.9002   35.1933   36.8092 N   0  0  0  0  0  0  0  0  0  0  0  0
    9.0439   45.4767   33.7205 H   0  0  0  0  0  0  0  0  0  0  0  0
   11.1827   46.1618   34.5226 H   0  0  0  0  0  0  0  0  0  0  0  0
   11.9531   45.6972   33.0808 H   0  0  0  0  0  0  0  0  0  0  0  0
   10.6328   44.6091   31.2062 H   0  0  0  0  0  0  0  0  0  0  0  0
    8.9149   44.2379   31.5252 H   0  0  0  0  0  0  0  0  0  0  0  0
    7.2206   46.0991   31.6821 H   0  0  0  0  0  0  0  0  0  0  0  0
   11.2857   46.8464   30.4572 H   0  0  0  0  0  0  0  0  0  0  0  0
    6.5445   48.2766   30.7526 H   0  0  0  0  0  0  0  0  0  0  0  0
   10.6156   49.0096   29.5334 H   0  0  0  0  0  0  0  0  0  0  0  0
    8.3242   51.8604   28.6135 H   0  0  0  0  0  0  0  0  0  0  0  0
    9.3848   50.5328   28.0093 H   0  0  0  0  0  0  0  0  0  0  0  0
    9.7234   51.3212   29.6154 H   0  0  0  0  0  0  0  0  0  0  0  0
   11.3829   41.5448   31.4684 H   0  0  0  0  0  0  0  0  0  0  0  0
    9.8219   40.7217   31.7588 H   0  0  0  0  0  0  0  0  0  0  0  0
   11.6989   39.5073   30.3491 H   0  0  0  0  0  0  0  0  0  0  0  0
   10.1116   38.2724   32.6631 H   0  0  0  0  0  0  0  0  0  0  0  0
   13.6814   37.4642   31.2269 H   0  0  0  0  0  0  0  0  0  0  0  0
    9.0036   37.3829   30.9346 H   0  0  0  0  0  0  0  0  0  0  0  0
   11.2846   36.3045   32.4929 H   0  0  0  0  0  0  0  0  0  0  0  0
   11.8848   36.9593   29.7589 H   0  0  0  0  0  0  0  0  0  0  0  0
   12.3364   38.3601   34.7442 H   0  0  0  0  0  0  0  0  0  0  0  0
   16.7573   34.1791   32.4622 H   0  0  0  0  0  0  0  0  0  0  0  0
   15.3529   35.7355   37.5141 H   0  0  0  0  0  0  0  0  0  0  0  0
   16.6362   34.5316   37.1417 H   0  0  0  0  0  0  0  0  0  0  0  0
  1  2  2  0
  1  3  1  0
  3  4  1  0
  4  5  1  0
  6  1  1  0
  7  6  1  0
  6  8  1  0
  8  9  1  0
  9 10  2  0
 11  9  1  0
 10 12  1  0
 13 11  2  0
 12 14  2  0
 14 13  1  0
 14 15  1  0
 15 16  1  0
  4 17  2  0
  4 18  1  0
 19 18  1  0
 19 20  1  0
 20 21  1  0
 20 22  1  0
 21 23  1  0
 22 24  1  0
 22 25  1  0
 25 23  1  0
 23 26  1  0
 25 27  1  0
 28 26  1  0
 29 26  1  0
 30 28  2  0
 28 31  1  0
 32 29  2  0
 33 30  1  0
 31 34  2  0
 31 32  1  0
 35 33  2  0
 35 34  1  0
 34 36  1  0
  6 37  1  1
  7 38  1  0
  7 39  1  0
  8 40  1  0
  8 41  1  0
 10 42  1  0
 11 43  1  0
 12 44  1  0
 13 45  1  0
 16 46  1  0
 16 47  1  0
 16 48  1  0
 19 49  1  0
 19 50  1  0
 20 51  1  0
 22 52  1  0
 23 53  1  0
 24 54  1  0
 25 55  1  0
 27 56  1  0
 29 57  1  0
 33 58  1  0
 36 59  1  0
 36 60  1  0
M  CHG  1   5  -1
M  END
>  <EmbedRMS>  (121) 
0.08827724964380165

$$$$

     RDKit          3D

 60 63  0  0  0  0  0  0  0  0999 V2000
   10.2902   43.7658   33.7850 C   0  0  0  0  0  0  0  0  0  0  0  0
   11.4131   43.5736   34.3383 O   0  0  0  0  0  0  0  0  0  0  0  0
    9.3650   42.7302   33.6899 O   0  0  0  0  0  0  0  0  0  0  0  0
    9.8806   41.2334   34.2821 P   0  0  0  0  0  5  0  0  0  0  0  0
   10.3590   41.4732   35.8729 O   0  0  0  0  0  1  0  0  0  0  0  0
    9.9342   45.1396   33.3236 C   0  0  1  0  0  0  0  0  0  0  0  0
   11.0774   46.0464   33.4444 N   0  0  0  0  0  0  0  0  0  0  0  0
    9.3095   45.2008   31.9134 C   0  0  0  0  0  0  0  0  0  0  0  0
   10.1407   44.5723   30.8204 C   0  0  0  0  0  0  0  0  0  0  0  0
    9.7509   43.3479   30.2557 C   0  0  0  0  0  0  0  0  0  0  0  0
   11.2628   45.2370   30.3007 C   0  0  0  0  0  0  0  0  0  0  0  0
   10.4879   42.7834   29.2106 C   0  0  0  0  0  0  0  0  0  0  0  0
   12.0076   44.6660   29.2642 C   0  0  0  0  0  0  0  0  0  0  0  0
   11.6251   43.4283   28.7133 C   0  0  0  0  0  0  0  0  0  0  0  0
   12.3406   42.8122   27.6760 O   0  0  0  0  0  0  0  0  0  0  0  0
   13.5176   43.3500   27.0820 C   0  0  0  0  0  0  0  0  0  0  0  0
    8.8031   40.1909   34.2080 O   0  0  0  0  0  0  0  0  0  0  0  0
   11.2359   40.7784   33.3782 O   0  0  0  0  0  0  0  0  0  0  0  0
   10.9289   40.6892   32.0026 C   0  0  0  0  0  0  0  0  0  0  0  0
   11.5304   39.3893   31.4393 C   0  0  0  0  0  0  0  0  0  0  0  0
   12.7547   39.0891   32.0823 O   0  0  0  0  0  0  0  0  0  0  0  0
   10.6130   38.1929   31.6462 C   0  0  0  0  0  0  0  0  0  0  0  0
   12.9435   37.6830   32.0292 C   0  0  0  0  0  0  0  0  0  0  0  0
    9.6080   38.0885   30.6609 O   0  0  0  0  0  0  0  0  0  0  0  0
   11.5839   37.0186   31.6882 C   0  0  0  0  0  0  0  0  0  0  0  0
   13.4897   37.2149   33.3250 N   0  0  0  0  0  0  0  0  0  0  0  0
   11.6186   36.3067   30.4692 O   0  0  0  0  0  0  0  0  0  0  0  0
   14.4760   36.3257   33.5740 C   0  0  0  0  0  0  0  0  0  0  0  0
   13.1175   37.6301   34.5697 C   0  0  0  0  0  0  0  0  0  0  0  0
   15.2067   35.6133   32.6748 N   0  0  0  0  0  0  0  0  0  0  0  0
   14.6733   36.2265   34.9192 C   0  0  0  0  0  0  0  0  0  0  0  0
   13.8225   37.0449   35.5792 N   0  0  0  0  0  0  0  0  0  0  0  0
   16.1644   34.7593   33.1554 C   0  0  0  0  0  0  0  0  0  0  0  0
   15.6520   35.3488   35.4138 C   0  0  0  0  0  0  0  0  0  0  0  0
   16.3798   34.6308   34.5049 N   0  0  0  0  0  0  0  0  0  0  0  0
   15.9007   35.1931   36.8096 N   0  0  0  0  0  0  0  0  0  0  0  0
    9.1488   45.5058   34.0219 H   0  0  0  0  0  0  0  0  0  0  0  0
   11.3044   46.1803   34.4573 H   0  0  0  0  0  0  0  0  0  0  0  0
   11.9199   45.6322   32.9830 H   0  0  0  0  0  0  0  0  0  0  0  0
    8.3084   44.7165   31.9508 H   0  0  0  0  0  0  0  0  0  0  0  0
    9.1199   46.2647   31.6513 H   0  0  0  0  0  0  0  0  0  0  0  0
    8.8754   42.8275   30.6235 H   0  0  0  0  0  0  0  0  0  0  0  0
   11.5549   46.2050   30.6869 H   0  0  0  0  0  0  0  0  0  0  0  0
   10.1796   41.8333   28.7929 H   0  0  0  0  0  0  0  0  0  0  0  0
   12.8720   45.1991   28.8928 H   0  0  0  0  0  0  0  0  0  0  0  0
   13.8762   42.6555   26.2950 H   0  0  0  0  0  0  0  0  0  0  0  0
   13.2947   44.3324   26.6147 H   0  0  0  0  0  0  0  0  0  0  0  0
   14.3143   43.4623   27.8474 H   0  0  0  0  0  0  0  0  0  0  0  0
   11.4304   41.5417   31.5019 H   0  0  0  0  0  0  0  0  0  0  0  0
    9.8431   40.7366   31.7511 H   0  0  0  0  0  0  0  0  0  0  0  0
   11.7331   39.5363   30.3537 H   0  0  0  0  0  0  0  0  0  0  0  0
   10.1222   38.2699   32.6422 H   0  0  0  0  0  0  0  0  0  0  0  0
   13.6884   37.4663   31.2317 H   0  0  0  0  0  0  0  0  0  0  0  0
   10.0263   38.1824   29.7665 H   0  0  0  0  0  0  0  0  0  0  0  0
   11.2785   36.3124   32.4916 H   0  0  0  0  0  0  0  0  0  0  0  0
   11.9845   36.9108   29.7712 H   0  0  0  0  0  0  0  0  0  0  0  0
   12.3364   38.3589   34.7448 H   0  0  0  0  0  0  0  0  0  0  0  0
   16.7581   34.1791   32.4626 H   0  0  0  0  0  0  0  0  0  0  0  0
   15.3533   35.7351   37.5145 H   0  0  0  0  0  0  0  0  0  0  0  0
   16.6369   34.5316   37.1421 H   0  0  0  0  0  0  0  0  0  0  0  0
  1  2  2  0
  1  3  1  0
  3  4  1  0
  4  5  1  0
  6  1  1  0
  7  6  1  0
  6  8  1  0
  8  9  1  0
  9 10  2  0
 11  9  1  0
 10 12  1  0
 13 11  2  0
 12 14  2  0
 14 13  1  0
 14 15  1  0
 15 16  1  0
  4 17  2  0
  4 18  1  0
 19 18  1  0
 19 20  1  0
 20 21  1  0
 20 22  1  0
 21 23  1  0
 22 24  1  0
 22 25  1  0
 25 23  1  0
 23 26  1  0
 25 27  1  0
 28 26  1  0
 29 26  1  0
 30 28  2  0
 28 31  1  0
 32 29  2  0
 33 30  1  0
 31 34  2  0
 31 32  1  0
 35 33  2  0
 35 34  1  0
 34 36  1  0
  6 37  1  1
  7 38  1  0
  7 39  1  0
  8 40  1  0
  8 41  1  0
 10 42  1  0
 11 43  1  0
 12 44  1  0
 13 45  1  0
 16 46  1  0
 16 47  1  0
 16 48  1  0
 19 49  1  0
 19 50  1  0
 20 51  1  0
 22 52  1  0
 23 53  1  0
 24 54  1  0
 25 55  1  0
 27 56  1  0
 29 57  1  0
 33 58  1  0
 36 59  1  0
 36 60  1  0
M  CHG  1   5  -1
M  END
>  <EmbedRMS>  (122) 
0.0915056710752932

$$$$

     RDKit          3D

 60 63  0  0  0  0  0  0  0  0999 V2000
   10.2876   43.7689   33.8089 C   0  0  0  0  0  0  0  0  0  0  0  0
   11.4117   43.5791   34.3594 O   0  0  0  0  0  0  0  0  0  0  0  0
    9.3680   42.7296   33.6989 O   0  0  0  0  0  0  0  0  0  0  0  0
    9.8842   41.2328   34.2845 P   0  0  0  0  0  5  0  0  0  0  0  0
   10.3634   41.4696   35.8753 O   0  0  0  0  0  1  0  0  0  0  0  0
    9.9605   45.1134   33.2543 C   0  0  2  0  0  0  0  0  0  0  0  0
   11.0639   46.0526   33.4722 N   0  0  0  0  0  0  0  0  0  0  0  0
    8.6432   45.6733   33.8315 C   0  0  0  0  0  0  0  0  0  0  0  0
    8.6760   45.8567   35.3314 C   0  0  0  0  0  0  0  0  0  0  0  0
    8.3030   44.8059   36.1846 C   0  0  0  0  0  0  0  0  0  0  0  0
    9.1014   47.0728   35.8885 C   0  0  0  0  0  0  0  0  0  0  0  0
    8.3580   44.9669   37.5720 C   0  0  0  0  0  0  0  0  0  0  0  0
    9.1552   47.2336   37.2758 C   0  0  0  0  0  0  0  0  0  0  0  0
    8.7869   46.1869   38.1285 C   0  0  0  0  0  0  0  0  0  0  0  0
    8.8609   46.3975   39.5134 O   0  0  0  0  0  0  0  0  0  0  0  0
    8.5206   45.4227   40.4938 C   0  0  0  0  0  0  0  0  0  0  0  0
    8.8066   40.1903   34.2080 O   0  0  0  0  0  0  0  0  0  0  0  0
   11.2374   40.7891   33.3704 O   0  0  0  0  0  0  0  0  0  0  0  0
   10.9190   40.6903   31.9966 C   0  0  0  0  0  0  0  0  0  0  0  0
   11.5175   39.3824   31.4412 C   0  0  0  0  0  0  0  0  0  0  0  0
   12.7495   39.0892   32.0755 O   0  0  0  0  0  0  0  0  0  0  0  0
   10.6036   38.1899   31.6659 C   0  0  0  0  0  0  0  0  0  0  0  0
   12.9401   37.6833   32.0276 C   0  0  0  0  0  0  0  0  0  0  0  0
    9.6377   38.0785   30.6474 O   0  0  0  0  0  0  0  0  0  0  0  0
   11.5804   37.0203   31.6937 C   0  0  0  0  0  0  0  0  0  0  0  0
   13.4902   37.2177   33.3237 N   0  0  0  0  0  0  0  0  0  0  0  0
   11.6118   36.3193   30.4680 O   0  0  0  0  0  0  0  0  0  0  0  0
   14.4759   36.3271   33.5731 C   0  0  0  0  0  0  0  0  0  0  0  0
   13.1176   37.6317   34.5688 C   0  0  0  0  0  0  0  0  0  0  0  0
   15.2064   35.6141   32.6742 N   0  0  0  0  0  0  0  0  0  0  0  0
   14.6729   36.2274   34.9184 C   0  0  0  0  0  0  0  0  0  0  0  0
   13.8221   37.0458   35.5783 N   0  0  0  0  0  0  0  0  0  0  0  0
   16.1637   34.7596   33.1549 C   0  0  0  0  0  0  0  0  0  0  0  0
   15.6514   35.3493   35.4133 C   0  0  0  0  0  0  0  0  0  0  0  0
   16.3791   34.6312   34.5044 N   0  0  0  0  0  0  0  0  0  0  0  0
   15.9001   35.1935   36.8091 N   0  0  0  0  0  0  0  0  0  0  0  0
    9.8180   44.9946   32.1575 H   0  0  0  0  0  0  0  0  0  0  0  0
   11.3286   46.0821   34.4841 H   0  0  0  0  0  0  0  0  0  0  0  0
   11.8996   45.7300   32.9311 H   0  0  0  0  0  0  0  0  0  0  0  0
    7.8042   44.9960   33.5580 H   0  0  0  0  0  0  0  0  0  0  0  0
    8.4229   46.6476   33.3425 H   0  0  0  0  0  0  0  0  0  0  0  0
    7.9692   43.8604   35.7764 H   0  0  0  0  0  0  0  0  0  0  0  0
    9.3969   47.8948   35.2483 H   0  0  0  0  0  0  0  0  0  0  0  0
    8.0658   44.1377   38.2017 H   0  0  0  0  0  0  0  0  0  0  0  0
    9.4874   48.1766   37.6912 H   0  0  0  0  0  0  0  0  0  0  0  0
    7.4539   45.1319   40.3890 H   0  0  0  0  0  0  0  0  0  0  0  0
    9.1726   44.5300   40.3871 H   0  0  0  0  0  0  0  0  0  0  0  0
    8.6732   45.8554   41.5037 H   0  0  0  0  0  0  0  0  0  0  0  0
   11.4006   41.5454   31.4760 H   0  0  0  0  0  0  0  0  0  0  0  0
    9.8312   40.7399   31.7558 H   0  0  0  0  0  0  0  0  0  0  0  0
   11.6988   39.5094   30.3490 H   0  0  0  0  0  0  0  0  0  0  0  0
   10.1130   38.2588   32.6664 H   0  0  0  0  0  0  0  0  0  0  0  0
   13.6800   37.4626   31.2265 H   0  0  0  0  0  0  0  0  0  0  0  0
    8.8954   38.6909   30.8891 H   0  0  0  0  0  0  0  0  0  0  0  0
   11.2830   36.3060   32.4929 H   0  0  0  0  0  0  0  0  0  0  0  0
   11.8859   36.9589   29.7593 H   0  0  0  0  0  0  0  0  0  0  0  0
   12.3360   38.3600   34.7441 H   0  0  0  0  0  0  0  0  0  0  0  0
   16.7572   34.1792   32.4621 H   0  0  0  0  0  0  0  0  0  0  0  0
   16.6362   34.5318   37.1416 H   0  0  0  0  0  0  0  0  0  0  0  0
   15.3528   35.7357   37.5140 H   0  0  0  0  0  0  0  0  0  0  0  0
  1  2  2  0
  1  3  1  0
  3  4  1  0
  4  5  1  0
  6  1  1  0
  7  6  1  0
  6  8  1  0
  8  9  1  0
  9 10  2  0
 11  9  1  0
 10 12  1  0
 13 11  2  0
 12 14  2  0
 14 13  1  0
 14 15  1  0
 15 16  1  0
  4 17  2  0
  4 18  1  0
 19 18  1  0
 19 20  1  0
 20 21  1  0
 20 22  1  0
 21 23  1  0
 22 24  1  0
 22 25  1  0
 25 23  1  0
 23 26  1  0
 25 27  1  0
 28 26  1  0
 29 26  1  0
 30 28  2  0
 28 31  1  0
 32 29  2  0
 33 30  1  0
 31 34  2  0
 31 32  1  0
 35 33  2  0
 35 34  1  0
 34 36  1  0
  6 37  1  1
  7 38  1  0
  7 39  1  0
  8 40  1  0
  8 41  1  0
 10 42  1  0
 11 43  1  0
 12 44  1  0
 13 45  1  0
 16 46  1  0
 16 47  1  0
 16 48  1  0
 19 49  1  0
 19 50  1  0
 20 51  1  0
 22 52  1  0
 23 53  1  0
 24 54  1  0
 25 55  1  0
 27 56  1  0
 29 57  1  0
 33 58  1  0
 36 59  1  0
 36 60  1  0
M  CHG  1   5  -1
M  END
>  <EmbedRMS>  (123) 
0.08900874486842719

$$$$

     RDKit          3D

 60 63  0  0  0  0  0  0  0  0999 V2000
   10.2941   43.7720   33.7964 C   0  0  0  0  0  0  0  0  0  0  0  0
   11.4140   43.5898   34.3580 O   0  0  0  0  0  0  0  0  0  0  0  0
    9.3673   42.7357   33.7086 O   0  0  0  0  0  0  0  0  0  0  0  0
    9.8872   41.2359   34.2845 P   0  0  0  0  0  5  0  0  0  0  0  0
   10.3696   41.4673   35.8748 O   0  0  0  0  0  1  0  0  0  0  0  0
    9.9759   45.1033   33.2101 C   0  0  1  0  0  0  0  0  0  0  0  0
   11.0441   46.0544   33.5250 N   0  0  0  0  0  0  0  0  0  0  0  0
    9.7482   45.0013   31.6781 C   0  0  0  0  0  0  0  0  0  0  0  0
   10.9937   45.2144   30.8391 C   0  0  0  0  0  0  0  0  0  0  0  0
   11.0097   46.2071   29.8447 C   0  0  0  0  0  0  0  0  0  0  0  0
   12.1331   44.4122   31.0151 C   0  0  0  0  0  0  0  0  0  0  0  0
   12.1441   46.3975   29.0506 C   0  0  0  0  0  0  0  0  0  0  0  0
   13.2672   44.6027   30.2208 C   0  0  0  0  0  0  0  0  0  0  0  0
   13.2797   45.6007   29.2291 C   0  0  0  0  0  0  0  0  0  0  0  0
   14.3924   45.8307   28.4064 O   0  0  0  0  0  0  0  0  0  0  0  0
   15.6101   45.0963   28.4779 C   0  0  0  0  0  0  0  0  0  0  0  0
    8.8094   40.1931   34.2079 O   0  0  0  0  0  0  0  0  0  0  0  0
   11.2382   40.7957   33.3638 O   0  0  0  0  0  0  0  0  0  0  0  0
   10.9106   40.6821   31.9926 C   0  0  0  0  0  0  0  0  0  0  0  0
   11.5141   39.3760   31.4401 C   0  0  0  0  0  0  0  0  0  0  0  0
   12.7451   39.0854   32.0745 O   0  0  0  0  0  0  0  0  0  0  0  0
   10.6021   38.1850   31.6671 C   0  0  0  0  0  0  0  0  0  0  0  0
   12.9333   37.6793   32.0282 C   0  0  0  0  0  0  0  0  0  0  0  0
    9.6390   38.0740   30.6458 O   0  0  0  0  0  0  0  0  0  0  0  0
   11.5746   37.0131   31.7055 C   0  0  0  0  0  0  0  0  0  0  0  0
   13.4904   37.2177   33.3232 N   0  0  0  0  0  0  0  0  0  0  0  0
   11.6223   36.3366   30.4687 O   0  0  0  0  0  0  0  0  0  0  0  0
   14.4762   36.3273   33.5725 C   0  0  0  0  0  0  0  0  0  0  0  0
   13.1179   37.6316   34.5685 C   0  0  0  0  0  0  0  0  0  0  0  0
   15.2063   35.6139   32.6738 N   0  0  0  0  0  0  0  0  0  0  0  0
   14.6734   36.2277   34.9180 C   0  0  0  0  0  0  0  0  0  0  0  0
   13.8226   37.0459   35.5780 N   0  0  0  0  0  0  0  0  0  0  0  0
   16.1636   34.7594   33.1546 C   0  0  0  0  0  0  0  0  0  0  0  0
   15.6516   35.3494   35.4129 C   0  0  0  0  0  0  0  0  0  0  0  0
   16.3791   34.6311   34.5041 N   0  0  0  0  0  0  0  0  0  0  0  0
   15.9002   35.1935   36.8088 N   0  0  0  0  0  0  0  0  0  0  0  0
    9.0288   45.4512   33.6817 H   0  0  0  0  0  0  0  0  0  0  0  0
   11.0606   46.2026   34.5610 H   0  0  0  0  0  0  0  0  0  0  0  0
   10.7869   46.9815   33.1136 H   0  0  0  0  0  0  0  0  0  0  0  0
    8.9855   45.7633   31.4043 H   0  0  0  0  0  0  0  0  0  0  0  0
    9.3003   44.0201   31.4078 H   0  0  0  0  0  0  0  0  0  0  0  0
   10.1439   46.8365   29.6805 H   0  0  0  0  0  0  0  0  0  0  0  0
   12.1557   43.6483   31.7761 H   0  0  0  0  0  0  0  0  0  0  0  0
   12.1400   47.1681   28.2901 H   0  0  0  0  0  0  0  0  0  0  0  0
   14.1283   43.9700   30.3873 H   0  0  0  0  0  0  0  0  0  0  0  0
   15.4207   44.0218   28.2706 H   0  0  0  0  0  0  0  0  0  0  0  0
   16.0703   45.2168   29.4813 H   0  0  0  0  0  0  0  0  0  0  0  0
   16.3143   45.4866   27.7149 H   0  0  0  0  0  0  0  0  0  0  0  0
   11.3814   41.5282   31.4557 H   0  0  0  0  0  0  0  0  0  0  0  0
    9.8211   40.7258   31.7592 H   0  0  0  0  0  0  0  0  0  0  0  0
   11.6957   39.4992   30.3473 H   0  0  0  0  0  0  0  0  0  0  0  0
   10.1082   38.2578   32.6657 H   0  0  0  0  0  0  0  0  0  0  0  0
   13.6659   37.4554   31.2210 H   0  0  0  0  0  0  0  0  0  0  0  0
    8.8912   38.6787   30.8900 H   0  0  0  0  0  0  0  0  0  0  0  0
   11.2863   36.3026   32.5167 H   0  0  0  0  0  0  0  0  0  0  0  0
   10.8547   35.7071   30.4579 H   0  0  0  0  0  0  0  0  0  0  0  0
   12.3353   38.3587   34.7441 H   0  0  0  0  0  0  0  0  0  0  0  0
   16.7570   34.1788   32.4619 H   0  0  0  0  0  0  0  0  0  0  0  0
   16.6360   34.5316   37.1414 H   0  0  0  0  0  0  0  0  0  0  0  0
   15.3530   35.7358   37.5137 H   0  0  0  0  0  0  0  0  0  0  0  0
  1  2  2  0
  1  3  1  0
  3  4  1  0
  4  5  1  0
  6  1  1  0
  7  6  1  0
  6  8  1  0
  8  9  1  0
  9 10  2  0
 11  9  1  0
 10 12  1  0
 13 11  2  0
 12 14  2  0
 14 13  1  0
 14 15  1  0
 15 16  1  0
  4 17  2  0
  4 18  1  0
 19 18  1  0
 19 20  1  0
 20 21  1  0
 20 22  1  0
 21 23  1  0
 22 24  1  0
 22 25  1  0
 25 23  1  0
 23 26  1  0
 25 27  1  0
 28 26  1  0
 29 26  1  0
 30 28  2  0
 28 31  1  0
 32 29  2  0
 33 30  1  0
 31 34  2  0
 31 32  1  0
 35 33  2  0
 35 34  1  0
 34 36  1  0
  6 37  1  1
  7 38  1  0
  7 39  1  0
  8 40  1  0
  8 41  1  0
 10 42  1  0
 11 43  1  0
 12 44  1  0
 13 45  1  0
 16 46  1  0
 16 47  1  0
 16 48  1  0
 19 49  1  0
 19 50  1  0
 20 51  1  0
 22 52  1  0
 23 53  1  0
 24 54  1  0
 25 55  1  0
 27 56  1  0
 29 57  1  0
 33 58  1  0
 36 59  1  0
 36 60  1  0
M  CHG  1   5  -1
M  END
>  <EmbedRMS>  (124) 
0.09022655587680327

$$$$

     RDKit          3D

 60 63  0  0  0  0  0  0  0  0999 V2000
   10.2875   43.7724   33.7998 C   0  0  0  0  0  0  0  0  0  0  0  0
   11.4101   43.5905   34.3568 O   0  0  0  0  0  0  0  0  0  0  0  0
    9.3639   42.7340   33.7095 O   0  0  0  0  0  0  0  0  0  0  0  0
    9.8853   41.2351   34.2859 P   0  0  0  0  0  5  0  0  0  0  0  0
   10.3682   41.4674   35.8758 O   0  0  0  0  0  1  0  0  0  0  0  0
    9.9622   45.1045   33.2250 C   0  0  1  0  0  0  0  0  0  0  0  0
   11.0640   46.0310   33.4993 N   0  0  0  0  0  0  0  0  0  0  0  0
    9.6868   44.9768   31.7103 C   0  0  0  0  0  0  0  0  0  0  0  0
    9.2398   46.2855   31.1110 C   0  0  0  0  0  0  0  0  0  0  0  0
    7.9150   46.7190   31.2717 C   0  0  0  0  0  0  0  0  0  0  0  0
   10.1504   47.1010   30.4213 C   0  0  0  0  0  0  0  0  0  0  0  0
    7.5042   47.9442   30.7391 C   0  0  0  0  0  0  0  0  0  0  0  0
    9.7391   48.3267   29.8892 C   0  0  0  0  0  0  0  0  0  0  0  0
    8.4075   48.7572   30.0449 C   0  0  0  0  0  0  0  0  0  0  0  0
    7.9461   49.9779   29.5301 O   0  0  0  0  0  0  0  0  0  0  0  0
    8.7531   50.9014   28.8067 C   0  0  0  0  0  0  0  0  0  0  0  0
    8.8082   40.1918   34.2095 O   0  0  0  0  0  0  0  0  0  0  0  0
   11.2364   40.7940   33.3667 O   0  0  0  0  0  0  0  0  0  0  0  0
   10.9121   40.6872   31.9946 C   0  0  0  0  0  0  0  0  0  0  0  0
   11.5163   39.3805   31.4413 C   0  0  0  0  0  0  0  0  0  0  0  0
   12.7482   39.0893   32.0768 O   0  0  0  0  0  0  0  0  0  0  0  0
   10.6048   38.1880   31.6659 C   0  0  0  0  0  0  0  0  0  0  0  0
   12.9410   37.6835   32.0279 C   0  0  0  0  0  0  0  0  0  0  0  0
    9.6357   38.0933   30.6502 O   0  0  0  0  0  0  0  0  0  0  0  0
   11.5826   37.0184   31.6937 C   0  0  0  0  0  0  0  0  0  0  0  0
   13.4908   37.2179   33.3239 N   0  0  0  0  0  0  0  0  0  0  0  0
   11.6141   36.3183   30.4676 O   0  0  0  0  0  0  0  0  0  0  0  0
   14.4762   36.3271   33.5733 C   0  0  0  0  0  0  0  0  0  0  0  0
   13.1179   37.6318   34.5689 C   0  0  0  0  0  0  0  0  0  0  0  0
   15.2066   35.6141   32.6743 N   0  0  0  0  0  0  0  0  0  0  0  0
   14.6731   36.2273   34.9186 C   0  0  0  0  0  0  0  0  0  0  0  0
   13.8223   37.0456   35.5785 N   0  0  0  0  0  0  0  0  0  0  0  0
   16.1638   34.7595   33.1550 C   0  0  0  0  0  0  0  0  0  0  0  0
   15.6515   35.3492   35.4134 C   0  0  0  0  0  0  0  0  0  0  0  0
   16.3792   34.6310   34.5045 N   0  0  0  0  0  0  0  0  0  0  0  0
   15.9002   35.1934   36.8092 N   0  0  0  0  0  0  0  0  0  0  0  0
    9.0444   45.4727   33.7353 H   0  0  0  0  0  0  0  0  0  0  0  0
   10.7423   47.0073   33.3075 H   0  0  0  0  0  0  0  0  0  0  0  0
   11.8655   45.8306   32.8565 H   0  0  0  0  0  0  0  0  0  0  0  0
    8.8891   44.2205   31.5384 H   0  0  0  0  0  0  0  0  0  0  0  0
   10.5961   44.6026   31.1889 H   0  0  0  0  0  0  0  0  0  0  0  0
    7.2013   46.1083   31.8110 H   0  0  0  0  0  0  0  0  0  0  0  0
   11.1805   46.7900   30.2989 H   0  0  0  0  0  0  0  0  0  0  0  0
    6.4784   48.2653   30.8687 H   0  0  0  0  0  0  0  0  0  0  0  0
   10.4637   48.9320   29.3619 H   0  0  0  0  0  0  0  0  0  0  0  0
    8.1346   51.7764   28.5203 H   0  0  0  0  0  0  0  0  0  0  0  0
    9.5938   51.2526   29.4415 H   0  0  0  0  0  0  0  0  0  0  0  0
    9.1443   50.4247   27.8831 H   0  0  0  0  0  0  0  0  0  0  0  0
    9.8217   40.7216   31.7594 H   0  0  0  0  0  0  0  0  0  0  0  0
   11.3823   41.5448   31.4675 H   0  0  0  0  0  0  0  0  0  0  0  0
   11.6990   39.5073   30.3492 H   0  0  0  0  0  0  0  0  0  0  0  0
   10.1116   38.2725   32.6631 H   0  0  0  0  0  0  0  0  0  0  0  0
   13.6814   37.4643   31.2269 H   0  0  0  0  0  0  0  0  0  0  0  0
    9.0036   37.3830   30.9347 H   0  0  0  0  0  0  0  0  0  0  0  0
   11.2846   36.3045   32.4929 H   0  0  0  0  0  0  0  0  0  0  0  0
   11.8849   36.9593   29.7589 H   0  0  0  0  0  0  0  0  0  0  0  0
   12.3364   38.3601   34.7442 H   0  0  0  0  0  0  0  0  0  0  0  0
   16.7573   34.1791   32.4622 H   0  0  0  0  0  0  0  0  0  0  0  0
   16.6363   34.5317   37.1417 H   0  0  0  0  0  0  0  0  0  0  0  0
   15.3529   35.7356   37.5141 H   0  0  0  0  0  0  0  0  0  0  0  0
  1  2  2  0
  1  3  1  0
  3  4  1  0
  4  5  1  0
  6  1  1  0
  7  6  1  0
  6  8  1  0
  8  9  1  0
  9 10  2  0
 11  9  1  0
 10 12  1  0
 13 11  2  0
 12 14  2  0
 14 13  1  0
 14 15  1  0
 15 16  1  0
  4 17  2  0
  4 18  1  0
 19 18  1  0
 19 20  1  0
 20 21  1  0
 20 22  1  0
 21 23  1  0
 22 24  1  0
 22 25  1  0
 25 23  1  0
 23 26  1  0
 25 27  1  0
 28 26  1  0
 29 26  1  0
 30 28  2  0
 28 31  1  0
 32 29  2  0
 33 30  1  0
 31 34  2  0
 31 32  1  0
 35 33  2  0
 35 34  1  0
 34 36  1  0
  6 37  1  1
  7 38  1  0
  7 39  1  0
  8 40  1  0
  8 41  1  0
 10 42  1  0
 11 43  1  0
 12 44  1  0
 13 45  1  0
 16 46  1  0
 16 47  1  0
 16 48  1  0
 19 49  1  0
 19 50  1  0
 20 51  1  0
 22 52  1  0
 23 53  1  0
 24 54  1  0
 25 55  1  0
 27 56  1  0
 29 57  1  0
 33 58  1  0
 36 59  1  0
 36 60  1  0
M  CHG  1   5  -1
M  END
>  <EmbedRMS>  (125) 
0.08746624288018034

$$$$

     RDKit          3D

 60 63  0  0  0  0  0  0  0  0999 V2000
   10.2895   43.7707   33.7895 C   0  0  0  0  0  0  0  0  0  0  0  0
   11.4145   43.5857   34.3411 O   0  0  0  0  0  0  0  0  0  0  0  0
    9.3634   42.7338   33.7104 O   0  0  0  0  0  0  0  0  0  0  0  0
    9.8845   41.2351   34.2874 P   0  0  0  0  0  5  0  0  0  0  0  0
   10.3668   41.4684   35.8772 O   0  0  0  0  0  1  0  0  0  0  0  0
    9.9608   45.1136   33.2263 C   0  0  1  0  0  0  0  0  0  0  0  0
   11.0589   46.0382   33.5133 N   0  0  0  0  0  0  0  0  0  0  0  0
    9.7330   45.0496   31.6983 C   0  0  0  0  0  0  0  0  0  0  0  0
    8.5467   44.2001   31.3062 C   0  0  0  0  0  0  0  0  0  0  0  0
    7.2508   44.5489   31.7192 C   0  0  0  0  0  0  0  0  0  0  0  0
    8.7261   43.0566   30.5124 C   0  0  0  0  0  0  0  0  0  0  0  0
    6.1603   43.7436   31.3781 C   0  0  0  0  0  0  0  0  0  0  0  0
    7.6364   42.2495   30.1749 C   0  0  0  0  0  0  0  0  0  0  0  0
    6.3419   42.5863   30.6125 C   0  0  0  0  0  0  0  0  0  0  0  0
    5.2179   41.8042   30.3080 O   0  0  0  0  0  0  0  0  0  0  0  0
    5.2599   40.5975   29.5531 C   0  0  0  0  0  0  0  0  0  0  0  0
    8.8070   40.1922   34.2104 O   0  0  0  0  0  0  0  0  0  0  0  0
   11.2365   40.7906   33.3713 O   0  0  0  0  0  0  0  0  0  0  0  0
   10.9149   40.6879   31.9991 C   0  0  0  0  0  0  0  0  0  0  0  0
   11.5269   39.3897   31.4389 C   0  0  0  0  0  0  0  0  0  0  0  0
   12.7509   39.0914   32.0845 O   0  0  0  0  0  0  0  0  0  0  0  0
   10.6120   38.1913   31.6455 C   0  0  0  0  0  0  0  0  0  0  0  0
   12.9429   37.6851   32.0296 C   0  0  0  0  0  0  0  0  0  0  0  0
    9.6068   38.0864   30.6604 O   0  0  0  0  0  0  0  0  0  0  0  0
   11.5844   37.0185   31.6878 C   0  0  0  0  0  0  0  0  0  0  0  0
   13.4897   37.2160   33.3250 N   0  0  0  0  0  0  0  0  0  0  0  0
   11.6200   36.3067   30.4688 O   0  0  0  0  0  0  0  0  0  0  0  0
   14.4758   36.3262   33.5739 C   0  0  0  0  0  0  0  0  0  0  0  0
   13.1175   37.6306   34.5699 C   0  0  0  0  0  0  0  0  0  0  0  0
   15.2065   35.6138   32.6746 N   0  0  0  0  0  0  0  0  0  0  0  0
   14.6731   36.2267   34.9191 C   0  0  0  0  0  0  0  0  0  0  0  0
   13.8224   37.0449   35.5792 N   0  0  0  0  0  0  0  0  0  0  0  0
   16.1640   34.7595   33.1551 C   0  0  0  0  0  0  0  0  0  0  0  0
   15.6518   35.3489   35.4136 C   0  0  0  0  0  0  0  0  0  0  0  0
   16.3795   34.6310   34.5046 N   0  0  0  0  0  0  0  0  0  0  0  0
   15.9006   35.1931   36.8094 N   0  0  0  0  0  0  0  0  0  0  0  0
    9.0384   45.4861   33.7250 H   0  0  0  0  0  0  0  0  0  0  0  0
   11.1152   46.1740   34.5498 H   0  0  0  0  0  0  0  0  0  0  0  0
   10.8130   46.9782   33.1255 H   0  0  0  0  0  0  0  0  0  0  0  0
    9.5549   46.0766   31.3116 H   0  0  0  0  0  0  0  0  0  0  0  0
   10.6608   44.6792   31.2080 H   0  0  0  0  0  0  0  0  0  0  0  0
    7.0841   45.4407   32.3099 H   0  0  0  0  0  0  0  0  0  0  0  0
    9.7113   42.7842   30.1573 H   0  0  0  0  0  0  0  0  0  0  0  0
    5.1682   44.0188   31.7131 H   0  0  0  0  0  0  0  0  0  0  0  0
    7.8120   41.3672   29.5746 H   0  0  0  0  0  0  0  0  0  0  0  0
    5.6436   40.7999   28.5309 H   0  0  0  0  0  0  0  0  0  0  0  0
    4.2336   40.1847   29.4720 H   0  0  0  0  0  0  0  0  0  0  0  0
    5.9048   39.8506   30.0627 H   0  0  0  0  0  0  0  0  0  0  0  0
   11.3818   41.5505   31.4782 H   0  0  0  0  0  0  0  0  0  0  0  0
    9.8246   40.7095   31.7655 H   0  0  0  0  0  0  0  0  0  0  0  0
   11.7312   39.5354   30.3537 H   0  0  0  0  0  0  0  0  0  0  0  0
   10.1211   38.2671   32.6415 H   0  0  0  0  0  0  0  0  0  0  0  0
   13.6882   37.4708   31.2320 H   0  0  0  0  0  0  0  0  0  0  0  0
   10.0249   38.1798   29.7658 H   0  0  0  0  0  0  0  0  0  0  0  0
   11.2796   36.3119   32.4911 H   0  0  0  0  0  0  0  0  0  0  0  0
   11.9859   36.9111   29.7710 H   0  0  0  0  0  0  0  0  0  0  0  0
   12.3364   38.3594   34.7453 H   0  0  0  0  0  0  0  0  0  0  0  0
   16.7577   34.1794   32.4622 H   0  0  0  0  0  0  0  0  0  0  0  0
   16.6369   34.5316   37.1418 H   0  0  0  0  0  0  0  0  0  0  0  0
   15.3532   35.7351   37.5144 H   0  0  0  0  0  0  0  0  0  0  0  0
  1  2  2  0
  1  3  1  0
  3  4  1  0
  4  5  1  0
  6  1  1  0
  7  6  1  0
  6  8  1  0
  8  9  1  0
  9 10  2  0
 11  9  1  0
 10 12  1  0
 13 11  2  0
 12 14  2  0
 14 13  1  0
 14 15  1  0
 15 16  1  0
  4 17  2  0
  4 18  1  0
 19 18  1  0
 19 20  1  0
 20 21  1  0
 20 22  1  0
 21 23  1  0
 22 24  1  0
 22 25  1  0
 25 23  1  0
 23 26  1  0
 25 27  1  0
 28 26  1  0
 29 26  1  0
 30 28  2  0
 28 31  1  0
 32 29  2  0
 33 30  1  0
 31 34  2  0
 31 32  1  0
 35 33  2  0
 35 34  1  0
 34 36  1  0
  6 37  1  1
  7 38  1  0
  7 39  1  0
  8 40  1  0
  8 41  1  0
 10 42  1  0
 11 43  1  0
 12 44  1  0
 13 45  1  0
 16 46  1  0
 16 47  1  0
 16 48  1  0
 19 49  1  0
 19 50  1  0
 20 51  1  0
 22 52  1  0
 23 53  1  0
 24 54  1  0
 25 55  1  0
 27 56  1  0
 29 57  1  0
 33 58  1  0
 36 59  1  0
 36 60  1  0
M  CHG  1   5  -1
M  END
>  <EmbedRMS>  (126) 
0.08764081635758457

$$$$

     RDKit          3D

 60 63  0  0  0  0  0  0  0  0999 V2000
   10.2904   43.7682   33.8032 C   0  0  0  0  0  0  0  0  0  0  0  0
   11.4118   43.5807   34.3603 O   0  0  0  0  0  0  0  0  0  0  0  0
    9.3643   42.7327   33.7095 O   0  0  0  0  0  0  0  0  0  0  0  0
    9.8840   41.2332   34.2858 P   0  0  0  0  0  5  0  0  0  0  0  0
   10.3665   41.4656   35.8760 O   0  0  0  0  0  1  0  0  0  0  0  0
    9.9697   45.1050   33.2283 C   0  0  1  0  0  0  0  0  0  0  0  0
   11.0569   46.0521   33.4894 N   0  0  0  0  0  0  0  0  0  0  0  0
    9.7165   44.9859   31.7146 C   0  0  0  0  0  0  0  0  0  0  0  0
    9.2974   46.3071   31.1224 C   0  0  0  0  0  0  0  0  0  0  0  0
   10.2447   47.1488   30.5195 C   0  0  0  0  0  0  0  0  0  0  0  0
    7.9615   46.7279   31.2094 C   0  0  0  0  0  0  0  0  0  0  0  0
    9.8572   48.3856   29.9962 C   0  0  0  0  0  0  0  0  0  0  0  0
    7.5743   47.9650   30.6858 C   0  0  0  0  0  0  0  0  0  0  0  0
    8.5238   48.8046   30.0724 C   0  0  0  0  0  0  0  0  0  0  0  0
    8.1859   50.0543   29.5322 O   0  0  0  0  0  0  0  0  0  0  0  0
    6.8728   50.6050   29.5406 C   0  0  0  0  0  0  0  0  0  0  0  0
    8.8066   40.1904   34.2089 O   0  0  0  0  0  0  0  0  0  0  0  0
   11.2358   40.7916   33.3679 O   0  0  0  0  0  0  0  0  0  0  0  0
   10.9139   40.6891   31.9951 C   0  0  0  0  0  0  0  0  0  0  0  0
   11.5254   39.3878   31.4368 C   0  0  0  0  0  0  0  0  0  0  0  0
   12.7486   39.0899   32.0823 O   0  0  0  0  0  0  0  0  0  0  0  0
   10.6120   38.1896   31.6461 C   0  0  0  0  0  0  0  0  0  0  0  0
   12.9371   37.6833   32.0302 C   0  0  0  0  0  0  0  0  0  0  0  0
    9.6149   38.0840   30.6536 O   0  0  0  0  0  0  0  0  0  0  0  0
   11.5792   37.0140   31.7014 C   0  0  0  0  0  0  0  0  0  0  0  0
   13.4906   37.2172   33.3242 N   0  0  0  0  0  0  0  0  0  0  0  0
   11.6217   36.3255   30.4726 O   0  0  0  0  0  0  0  0  0  0  0  0
   14.4763   36.3268   33.5730 C   0  0  0  0  0  0  0  0  0  0  0  0
   13.1181   37.6310   34.5694 C   0  0  0  0  0  0  0  0  0  0  0  0
   15.2065   35.6138   32.6739 N   0  0  0  0  0  0  0  0  0  0  0  0
   14.6735   36.2270   34.9184 C   0  0  0  0  0  0  0  0  0  0  0  0
   13.8228   37.0451   35.5787 N   0  0  0  0  0  0  0  0  0  0  0  0
   16.1638   34.7594   33.1546 C   0  0  0  0  0  0  0  0  0  0  0  0
   15.6518   35.3489   35.4131 C   0  0  0  0  0  0  0  0  0  0  0  0
   16.3794   34.6308   34.5041 N   0  0  0  0  0  0  0  0  0  0  0  0
   15.9005   35.1931   36.8089 N   0  0  0  0  0  0  0  0  0  0  0  0
    9.0440   45.4766   33.7209 H   0  0  0  0  0  0  0  0  0  0  0  0
   11.9530   45.6972   33.0807 H   0  0  0  0  0  0  0  0  0  0  0  0
   11.1828   46.1617   34.5226 H   0  0  0  0  0  0  0  0  0  0  0  0
   10.6324   44.6103   31.2059 H   0  0  0  0  0  0  0  0  0  0  0  0
    8.9149   44.2378   31.5254 H   0  0  0  0  0  0  0  0  0  0  0  0
   11.2834   46.8489   30.4565 H   0  0  0  0  0  0  0  0  0  0  0  0
    7.2200   46.0973   31.6847 H   0  0  0  0  0  0  0  0  0  0  0  0
   10.5977   49.0239   29.5311 H   0  0  0  0  0  0  0  0  0  0  0  0
    6.5369   48.2597   30.7655 H   0  0  0  0  0  0  0  0  0  0  0  0
    6.8933   51.5990   29.0488 H   0  0  0  0  0  0  0  0  0  0  0  0
    6.5190   50.7325   30.5855 H   0  0  0  0  0  0  0  0  0  0  0  0
    6.1782   49.9447   28.9795 H   0  0  0  0  0  0  0  0  0  0  0  0
   11.3800   41.5517   31.4724 H   0  0  0  0  0  0  0  0  0  0  0  0
    9.8236   40.7187   31.7588 H   0  0  0  0  0  0  0  0  0  0  0  0
   11.7286   39.5295   30.3507 H   0  0  0  0  0  0  0  0  0  0  0  0
   10.1135   38.2720   32.6378 H   0  0  0  0  0  0  0  0  0  0  0  0
   13.6724   37.4645   31.2240 H   0  0  0  0  0  0  0  0  0  0  0  0
   10.0536   38.1089   29.7638 H   0  0  0  0  0  0  0  0  0  0  0  0
   11.2646   36.3139   32.5107 H   0  0  0  0  0  0  0  0  0  0  0  0
   12.1552   35.5036   30.6317 H   0  0  0  0  0  0  0  0  0  0  0  0
   12.3362   38.3587   34.7451 H   0  0  0  0  0  0  0  0  0  0  0  0
   16.7572   34.1789   32.4618 H   0  0  0  0  0  0  0  0  0  0  0  0
   15.3533   35.7353   37.5139 H   0  0  0  0  0  0  0  0  0  0  0  0
   16.6366   34.5314   37.1414 H   0  0  0  0  0  0  0  0  0  0  0  0
  1  2  2  0
  1  3  1  0
  3  4  1  0
  4  5  1  0
  6  1  1  0
  7  6  1  0
  6  8  1  0
  8  9  1  0
  9 10  2  0
 11  9  1  0
 10 12  1  0
 13 11  2  0
 12 14  2  0
 14 13  1  0
 14 15  1  0
 15 16  1  0
  4 17  2  0
  4 18  1  0
 19 18  1  0
 19 20  1  0
 20 21  1  0
 20 22  1  0
 21 23  1  0
 22 24  1  0
 22 25  1  0
 25 23  1  0
 23 26  1  0
 25 27  1  0
 28 26  1  0
 29 26  1  0
 30 28  2  0
 28 31  1  0
 32 29  2  0
 33 30  1  0
 31 34  2  0
 31 32  1  0
 35 33  2  0
 35 34  1  0
 34 36  1  0
  6 37  1  1
  7 38  1  0
  7 39  1  0
  8 40  1  0
  8 41  1  0
 10 42  1  0
 11 43  1  0
 12 44  1  0
 13 45  1  0
 16 46  1  0
 16 47  1  0
 16 48  1  0
 19 49  1  0
 19 50  1  0
 20 51  1  0
 22 52  1  0
 23 53  1  0
 24 54  1  0
 25 55  1  0
 27 56  1  0
 29 57  1  0
 33 58  1  0
 36 59  1  0
 36 60  1  0
M  CHG  1   5  -1
M  END
>  <EmbedRMS>  (127) 
0.0883430136632453

$$$$

     RDKit          3D

 60 63  0  0  0  0  0  0  0  0999 V2000
   10.2896   43.7707   33.7895 C   0  0  0  0  0  0  0  0  0  0  0  0
   11.4145   43.5857   34.3410 O   0  0  0  0  0  0  0  0  0  0  0  0
    9.3637   42.7337   33.7100 O   0  0  0  0  0  0  0  0  0  0  0  0
    9.8852   41.2347   34.2859 P   0  0  0  0  0  5  0  0  0  0  0  0
   10.3679   41.4679   35.8758 O   0  0  0  0  0  1  0  0  0  0  0  0
    9.9605   45.1139   33.2271 C   0  0  1  0  0  0  0  0  0  0  0  0
   11.0591   46.0381   33.5130 N   0  0  0  0  0  0  0  0  0  0  0  0
    9.7304   45.0504   31.6993 C   0  0  0  0  0  0  0  0  0  0  0  0
    8.5423   44.2026   31.3094 C   0  0  0  0  0  0  0  0  0  0  0  0
    8.7191   43.0569   30.5182 C   0  0  0  0  0  0  0  0  0  0  0  0
    7.2473   44.5544   31.7227 C   0  0  0  0  0  0  0  0  0  0  0  0
    7.6278   42.2508   30.1835 C   0  0  0  0  0  0  0  0  0  0  0  0
    6.1552   43.7501   31.3846 C   0  0  0  0  0  0  0  0  0  0  0  0
    6.3342   42.5905   30.6217 C   0  0  0  0  0  0  0  0  0  0  0  0
    5.2088   41.8093   30.3205 O   0  0  0  0  0  0  0  0  0  0  0  0
    5.2484   40.6000   29.5697 C   0  0  0  0  0  0  0  0  0  0  0  0
    8.8073   40.1922   34.2098 O   0  0  0  0  0  0  0  0  0  0  0  0
   11.2369   40.7906   33.3682 O   0  0  0  0  0  0  0  0  0  0  0  0
   10.9137   40.6830   31.9962 C   0  0  0  0  0  0  0  0  0  0  0  0
   11.5166   39.3771   31.4408 C   0  0  0  0  0  0  0  0  0  0  0  0
   12.7473   39.0852   32.0745 O   0  0  0  0  0  0  0  0  0  0  0  0
   10.6046   38.1864   31.6672 C   0  0  0  0  0  0  0  0  0  0  0  0
   12.9345   37.6789   32.0283 C   0  0  0  0  0  0  0  0  0  0  0  0
    9.6379   38.0925   30.6486 O   0  0  0  0  0  0  0  0  0  0  0  0
   11.5760   37.0127   31.7055 C   0  0  0  0  0  0  0  0  0  0  0  0
   13.4908   37.2174   33.3234 N   0  0  0  0  0  0  0  0  0  0  0  0
   11.6233   36.3373   30.4681 O   0  0  0  0  0  0  0  0  0  0  0  0
   14.4765   36.3270   33.5728 C   0  0  0  0  0  0  0  0  0  0  0  0
   13.1181   37.6314   34.5686 C   0  0  0  0  0  0  0  0  0  0  0  0
   15.2066   35.6137   32.6739 N   0  0  0  0  0  0  0  0  0  0  0  0
   14.6736   36.2275   34.9182 C   0  0  0  0  0  0  0  0  0  0  0  0
   13.8227   37.0457   35.5782 N   0  0  0  0  0  0  0  0  0  0  0  0
   16.1638   34.7592   33.1548 C   0  0  0  0  0  0  0  0  0  0  0  0
   15.6517   35.3492   35.4131 C   0  0  0  0  0  0  0  0  0  0  0  0
   16.3793   34.6309   34.5043 N   0  0  0  0  0  0  0  0  0  0  0  0
   15.9003   35.1934   36.8090 N   0  0  0  0  0  0  0  0  0  0  0  0
    9.0388   45.4864   33.7271 H   0  0  0  0  0  0  0  0  0  0  0  0
   10.8129   46.9783   33.1256 H   0  0  0  0  0  0  0  0  0  0  0  0
   11.1166   46.1738   34.5494 H   0  0  0  0  0  0  0  0  0  0  0  0
   10.6570   44.6787   31.2076 H   0  0  0  0  0  0  0  0  0  0  0  0
    9.5531   46.0776   31.3130 H   0  0  0  0  0  0  0  0  0  0  0  0
    9.7037   42.7819   30.1631 H   0  0  0  0  0  0  0  0  0  0  0  0
    7.0827   45.4477   32.3117 H   0  0  0  0  0  0  0  0  0  0  0  0
    7.8014   41.3667   29.5853 H   0  0  0  0  0  0  0  0  0  0  0  0
    5.1640   44.0276   31.7199 H   0  0  0  0  0  0  0  0  0  0  0  0
    4.2214   40.1884   29.4910 H   0  0  0  0  0  0  0  0  0  0  0  0
    5.8927   39.8539   30.0813 H   0  0  0  0  0  0  0  0  0  0  0  0
    5.6314   40.7984   28.5464 H   0  0  0  0  0  0  0  0  0  0  0  0
    9.8234   40.7111   31.7635 H   0  0  0  0  0  0  0  0  0  0  0  0
   11.3860   41.5395   31.4702 H   0  0  0  0  0  0  0  0  0  0  0  0
   11.6980   39.5027   30.3483 H   0  0  0  0  0  0  0  0  0  0  0  0
   10.1092   38.2760   32.6631 H   0  0  0  0  0  0  0  0  0  0  0  0
   13.6673   37.4545   31.2214 H   0  0  0  0  0  0  0  0  0  0  0  0
    8.9745   37.4207   30.9548 H   0  0  0  0  0  0  0  0  0  0  0  0
   11.2860   36.3036   32.5173 H   0  0  0  0  0  0  0  0  0  0  0  0
   10.8676   35.6934   30.4645 H   0  0  0  0  0  0  0  0  0  0  0  0
   12.3355   38.3585   34.7440 H   0  0  0  0  0  0  0  0  0  0  0  0
   16.7572   34.1786   32.4621 H   0  0  0  0  0  0  0  0  0  0  0  0
   15.3530   35.7357   37.5138 H   0  0  0  0  0  0  0  0  0  0  0  0
   16.6361   34.5315   37.1416 H   0  0  0  0  0  0  0  0  0  0  0  0
  1  2  2  0
  1  3  1  0
  3  4  1  0
  4  5  1  0
  6  1  1  0
  7  6  1  0
  6  8  1  0
  8  9  1  0
  9 10  2  0
 11  9  1  0
 10 12  1  0
 13 11  2  0
 12 14  2  0
 14 13  1  0
 14 15  1  0
 15 16  1  0
  4 17  2  0
  4 18  1  0
 19 18  1  0
 19 20  1  0
 20 21  1  0
 20 22  1  0
 21 23  1  0
 22 24  1  0
 22 25  1  0
 25 23  1  0
 23 26  1  0
 25 27  1  0
 28 26  1  0
 29 26  1  0
 30 28  2  0
 28 31  1  0
 32 29  2  0
 33 30  1  0
 31 34  2  0
 31 32  1  0
 35 33  2  0
 35 34  1  0
 34 36  1  0
  6 37  1  1
  7 38  1  0
  7 39  1  0
  8 40  1  0
  8 41  1  0
 10 42  1  0
 11 43  1  0
 12 44  1  0
 13 45  1  0
 16 46  1  0
 16 47  1  0
 16 48  1  0
 19 49  1  0
 19 50  1  0
 20 51  1  0
 22 52  1  0
 23 53  1  0
 24 54  1  0
 25 55  1  0
 27 56  1  0
 29 57  1  0
 33 58  1  0
 36 59  1  0
 36 60  1  0
M  CHG  1   5  -1
M  END
>  <EmbedRMS>  (128) 
0.08962627682784335

$$$$

     RDKit          3D

 60 63  0  0  0  0  0  0  0  0999 V2000
   10.2877   43.7696   33.7809 C   0  0  0  0  0  0  0  0  0  0  0  0
   11.4118   43.5817   34.3337 O   0  0  0  0  0  0  0  0  0  0  0  0
    9.3646   42.7315   33.6888 O   0  0  0  0  0  0  0  0  0  0  0  0
    9.8820   41.2352   34.2812 P   0  0  0  0  0  5  0  0  0  0  0  0
   10.3610   41.4749   35.8719 O   0  0  0  0  0  1  0  0  0  0  0  0
    9.9275   45.1412   33.3244 C   0  0  1  0  0  0  0  0  0  0  0  0
   11.0834   46.0294   33.4542 N   0  0  0  0  0  0  0  0  0  0  0  0
    9.2721   45.2039   31.9229 C   0  0  0  0  0  0  0  0  0  0  0  0
   10.0997   44.6220   30.8023 C   0  0  0  0  0  0  0  0  0  0  0  0
   11.1444   45.3607   30.2241 C   0  0  0  0  0  0  0  0  0  0  0  0
    9.7778   43.3645   30.2698 C   0  0  0  0  0  0  0  0  0  0  0  0
   11.8847   44.8305   29.1631 C   0  0  0  0  0  0  0  0  0  0  0  0
   10.5109   42.8387   29.2020 C   0  0  0  0  0  0  0  0  0  0  0  0
   11.5737   43.5585   28.6463 C   0  0  0  0  0  0  0  0  0  0  0  0
   12.2878   42.9810   27.5861 O   0  0  0  0  0  0  0  0  0  0  0  0
   13.3923   43.5967   26.9317 C   0  0  0  0  0  0  0  0  0  0  0  0
    8.8046   40.1922   34.2083 O   0  0  0  0  0  0  0  0  0  0  0  0
   11.2365   40.7805   33.3754 O   0  0  0  0  0  0  0  0  0  0  0  0
   10.9259   40.6844   32.0008 C   0  0  0  0  0  0  0  0  0  0  0  0
   11.5203   39.3786   31.4429 C   0  0  0  0  0  0  0  0  0  0  0  0
   12.7525   39.0859   32.0749 O   0  0  0  0  0  0  0  0  0  0  0  0
   10.6061   38.1882   31.6671 C   0  0  0  0  0  0  0  0  0  0  0  0
   12.9419   37.6804   32.0276 C   0  0  0  0  0  0  0  0  0  0  0  0
    9.6369   38.0953   30.6510 O   0  0  0  0  0  0  0  0  0  0  0  0
   11.5824   37.0174   31.6939 C   0  0  0  0  0  0  0  0  0  0  0  0
   13.4908   37.2162   33.3240 N   0  0  0  0  0  0  0  0  0  0  0  0
   11.6129   36.3180   30.4674 O   0  0  0  0  0  0  0  0  0  0  0  0
   14.4765   36.3263   33.5736 C   0  0  0  0  0  0  0  0  0  0  0  0
   13.1179   37.6309   34.5687 C   0  0  0  0  0  0  0  0  0  0  0  0
   15.2070   35.6134   32.6746 N   0  0  0  0  0  0  0  0  0  0  0  0
   14.6734   36.2270   34.9188 C   0  0  0  0  0  0  0  0  0  0  0  0
   13.8224   37.0454   35.5785 N   0  0  0  0  0  0  0  0  0  0  0  0
   16.1643   34.7591   33.1554 C   0  0  0  0  0  0  0  0  0  0  0  0
   15.6518   35.3490   35.4137 C   0  0  0  0  0  0  0  0  0  0  0  0
   16.3796   34.6308   34.5049 N   0  0  0  0  0  0  0  0  0  0  0  0
   15.9004   35.1933   36.8095 N   0  0  0  0  0  0  0  0  0  0  0  0
    9.1601   45.5047   34.0426 H   0  0  0  0  0  0  0  0  0  0  0  0
   11.8545   45.7053   32.8272 H   0  0  0  0  0  0  0  0  0  0  0  0
   10.8106   46.9935   33.1540 H   0  0  0  0  0  0  0  0  0  0  0  0
    8.2896   44.6841   31.9714 H   0  0  0  0  0  0  0  0  0  0  0  0
    9.0348   46.2628   31.6807 H   0  0  0  0  0  0  0  0  0  0  0  0
   11.3794   46.3538   30.5852 H   0  0  0  0  0  0  0  0  0  0  0  0
    8.9561   42.7903   30.6787 H   0  0  0  0  0  0  0  0  0  0  0  0
   12.6894   45.4208   28.7466 H   0  0  0  0  0  0  0  0  0  0  0  0
   10.2559   41.8623   28.8096 H   0  0  0  0  0  0  0  0  0  0  0  0
   13.7677   42.9184   26.1385 H   0  0  0  0  0  0  0  0  0  0  0  0
   14.2114   43.7822   27.6583 H   0  0  0  0  0  0  0  0  0  0  0  0
   13.0741   44.5514   26.4620 H   0  0  0  0  0  0  0  0  0  0  0  0
   11.4289   41.5316   31.4926 H   0  0  0  0  0  0  0  0  0  0  0  0
    9.8396   40.7330   31.7523 H   0  0  0  0  0  0  0  0  0  0  0  0
   11.7005   39.5080   30.3505 H   0  0  0  0  0  0  0  0  0  0  0  0
   10.1130   38.2731   32.6643 H   0  0  0  0  0  0  0  0  0  0  0  0
   13.6820   37.4588   31.2269 H   0  0  0  0  0  0  0  0  0  0  0  0
    9.0032   37.3865   30.9356 H   0  0  0  0  0  0  0  0  0  0  0  0
   11.2839   36.3035   32.4929 H   0  0  0  0  0  0  0  0  0  0  0  0
   11.8836   36.9593   29.7589 H   0  0  0  0  0  0  0  0  0  0  0  0
   12.3362   38.3592   34.7436 H   0  0  0  0  0  0  0  0  0  0  0  0
   16.7579   34.1787   32.4627 H   0  0  0  0  0  0  0  0  0  0  0  0
   15.3530   35.7355   37.5143 H   0  0  0  0  0  0  0  0  0  0  0  0
   16.6364   34.5317   37.1421 H   0  0  0  0  0  0  0  0  0  0  0  0
  1  2  2  0
  1  3  1  0
  3  4  1  0
  4  5  1  0
  6  1  1  0
  7  6  1  0
  6  8  1  0
  8  9  1  0
  9 10  2  0
 11  9  1  0
 10 12  1  0
 13 11  2  0
 12 14  2  0
 14 13  1  0
 14 15  1  0
 15 16  1  0
  4 17  2  0
  4 18  1  0
 19 18  1  0
 19 20  1  0
 20 21  1  0
 20 22  1  0
 21 23  1  0
 22 24  1  0
 22 25  1  0
 25 23  1  0
 23 26  1  0
 25 27  1  0
 28 26  1  0
 29 26  1  0
 30 28  2  0
 28 31  1  0
 32 29  2  0
 33 30  1  0
 31 34  2  0
 31 32  1  0
 35 33  2  0
 35 34  1  0
 34 36  1  0
  6 37  1  1
  7 38  1  0
  7 39  1  0
  8 40  1  0
  8 41  1  0
 10 42  1  0
 11 43  1  0
 12 44  1  0
 13 45  1  0
 16 46  1  0
 16 47  1  0
 16 48  1  0
 19 49  1  0
 19 50  1  0
 20 51  1  0
 22 52  1  0
 23 53  1  0
 24 54  1  0
 25 55  1  0
 27 56  1  0
 29 57  1  0
 33 58  1  0
 36 59  1  0
 36 60  1  0
M  CHG  1   5  -1
M  END
>  <EmbedRMS>  (129) 
0.09171245595338275

$$$$

     RDKit          3D

 60 63  0  0  0  0  0  0  0  0999 V2000
   10.2880   43.7719   33.8023 C   0  0  0  0  0  0  0  0  0  0  0  0
   11.4129   43.5865   34.3533 O   0  0  0  0  0  0  0  0  0  0  0  0
    9.3633   42.7344   33.7120 O   0  0  0  0  0  0  0  0  0  0  0  0
    9.8852   41.2346   34.2857 P   0  0  0  0  0  5  0  0  0  0  0  0
   10.3686   41.4661   35.8756 O   0  0  0  0  0  1  0  0  0  0  0  0
    9.9687   45.1019   33.2144 C   0  0  1  0  0  0  0  0  0  0  0  0
   11.0576   46.0377   33.5061 N   0  0  0  0  0  0  0  0  0  0  0  0
    9.7779   44.9521   31.6906 C   0  0  0  0  0  0  0  0  0  0  0  0
    9.2559   46.2180   31.0592 C   0  0  0  0  0  0  0  0  0  0  0  0
   10.1211   47.0780   30.3650 C   0  0  0  0  0  0  0  0  0  0  0  0
    7.9012   46.5620   31.1848 C   0  0  0  0  0  0  0  0  0  0  0  0
    9.6356   48.2598   29.7984 C   0  0  0  0  0  0  0  0  0  0  0  0
    7.4161   47.7441   30.6177 C   0  0  0  0  0  0  0  0  0  0  0  0
    8.2841   48.6039   29.9177 C   0  0  0  0  0  0  0  0  0  0  0  0
    7.8467   49.8009   29.3315 O   0  0  0  0  0  0  0  0  0  0  0  0
    6.5044   50.2739   29.3760 C   0  0  0  0  0  0  0  0  0  0  0  0
    8.8079   40.1915   34.2093 O   0  0  0  0  0  0  0  0  0  0  0  0
   11.2365   40.7937   33.3657 O   0  0  0  0  0  0  0  0  0  0  0  0
   10.9125   40.6862   31.9933 C   0  0  0  0  0  0  0  0  0  0  0  0
   11.5158   39.3782   31.4398 C   0  0  0  0  0  0  0  0  0  0  0  0
   12.7465   39.0862   32.0745 O   0  0  0  0  0  0  0  0  0  0  0  0
   10.6043   38.1871   31.6670 C   0  0  0  0  0  0  0  0  0  0  0  0
   12.9343   37.6798   32.0284 C   0  0  0  0  0  0  0  0  0  0  0  0
    9.6377   38.0920   30.6487 O   0  0  0  0  0  0  0  0  0  0  0  0
   11.5760   37.0134   31.7057 C   0  0  0  0  0  0  0  0  0  0  0  0
   13.4909   37.2180   33.3233 N   0  0  0  0  0  0  0  0  0  0  0  0
   11.6234   36.3375   30.4685 O   0  0  0  0  0  0  0  0  0  0  0  0
   14.4764   36.3273   33.5727 C   0  0  0  0  0  0  0  0  0  0  0  0
   13.1182   37.6317   34.5686 C   0  0  0  0  0  0  0  0  0  0  0  0
   15.2065   35.6139   32.6738 N   0  0  0  0  0  0  0  0  0  0  0  0
   14.6735   36.2276   34.9181 C   0  0  0  0  0  0  0  0  0  0  0  0
   13.8227   37.0458   35.5781 N   0  0  0  0  0  0  0  0  0  0  0  0
   16.1637   34.7594   33.1547 C   0  0  0  0  0  0  0  0  0  0  0  0
   15.6516   35.3493   35.4130 C   0  0  0  0  0  0  0  0  0  0  0  0
   16.3792   34.6310   34.5042 N   0  0  0  0  0  0  0  0  0  0  0  0
   15.9002   35.1934   36.8089 N   0  0  0  0  0  0  0  0  0  0  0  0
    9.0246   45.4687   33.6772 H   0  0  0  0  0  0  0  0  0  0  0  0
   10.7940   46.9818   33.1431 H   0  0  0  0  0  0  0  0  0  0  0  0
   11.1209   46.1575   34.5441 H   0  0  0  0  0  0  0  0  0  0  0  0
   10.7414   44.6524   31.2209 H   0  0  0  0  0  0  0  0  0  0  0  0
    9.0522   44.1354   31.4792 H   0  0  0  0  0  0  0  0  0  0  0  0
   11.1721   46.8363   30.2658 H   0  0  0  0  0  0  0  0  0  0  0  0
    7.2210   45.9138   31.7237 H   0  0  0  0  0  0  0  0  0  0  0  0
   10.3138   48.9139   29.2652 H   0  0  0  0  0  0  0  0  0  0  0  0
    6.3669   47.9806   30.7307 H   0  0  0  0  0  0  0  0  0  0  0  0
    6.1914   50.4361   30.4291 H   0  0  0  0  0  0  0  0  0  0  0  0
    6.4422   51.2398   28.8342 H   0  0  0  0  0  0  0  0  0  0  0  0
    5.8263   49.5455   28.8833 H   0  0  0  0  0  0  0  0  0  0  0  0
    9.8222   40.7218   31.7582 H   0  0  0  0  0  0  0  0  0  0  0  0
   11.3835   41.5432   31.4658 H   0  0  0  0  0  0  0  0  0  0  0  0
   11.6981   39.5022   30.3473 H   0  0  0  0  0  0  0  0  0  0  0  0
   10.1090   38.2773   32.6628 H   0  0  0  0  0  0  0  0  0  0  0  0
   13.6670   37.4557   31.2213 H   0  0  0  0  0  0  0  0  0  0  0  0
    8.9778   37.4159   30.9531 H   0  0  0  0  0  0  0  0  0  0  0  0
   11.2860   36.3046   32.5178 H   0  0  0  0  0  0  0  0  0  0  0  0
   10.8690   35.6922   30.4658 H   0  0  0  0  0  0  0  0  0  0  0  0
   12.3356   38.3588   34.7441 H   0  0  0  0  0  0  0  0  0  0  0  0
   16.7571   34.1787   32.4620 H   0  0  0  0  0  0  0  0  0  0  0  0
   16.6360   34.5315   37.1414 H   0  0  0  0  0  0  0  0  0  0  0  0
   15.3530   35.7358   37.5137 H   0  0  0  0  0  0  0  0  0  0  0  0
  1  2  2  0
  1  3  1  0
  3  4  1  0
  4  5  1  0
  6  1  1  0
  7  6  1  0
  6  8  1  0
  8  9  1  0
  9 10  2  0
 11  9  1  0
 10 12  1  0
 13 11  2  0
 12 14  2  0
 14 13  1  0
 14 15  1  0
 15 16  1  0
  4 17  2  0
  4 18  1  0
 19 18  1  0
 19 20  1  0
 20 21  1  0
 20 22  1  0
 21 23  1  0
 22 24  1  0
 22 25  1  0
 25 23  1  0
 23 26  1  0
 25 27  1  0
 28 26  1  0
 29 26  1  0
 30 28  2  0
 28 31  1  0
 32 29  2  0
 33 30  1  0
 31 34  2  0
 31 32  1  0
 35 33  2  0
 35 34  1  0
 34 36  1  0
  6 37  1  1
  7 38  1  0
  7 39  1  0
  8 40  1  0
  8 41  1  0
 10 42  1  0
 11 43  1  0
 12 44  1  0
 13 45  1  0
 16 46  1  0
 16 47  1  0
 16 48  1  0
 19 49  1  0
 19 50  1  0
 20 51  1  0
 22 52  1  0
 23 53  1  0
 24 54  1  0
 25 55  1  0
 27 56  1  0
 29 57  1  0
 33 58  1  0
 36 59  1  0
 36 60  1  0
M  CHG  1   5  -1
M  END
>  <EmbedRMS>  (130) 
0.08893792800039368

$$$$

     RDKit          3D

 60 63  0  0  0  0  0  0  0  0999 V2000
   10.2869   43.7693   33.7895 C   0  0  0  0  0  0  0  0  0  0  0  0
   11.4140   43.5803   34.3354 O   0  0  0  0  0  0  0  0  0  0  0  0
    9.3642   42.7311   33.6951 O   0  0  0  0  0  0  0  0  0  0  0  0
    9.8818   41.2340   34.2835 P   0  0  0  0  0  5  0  0  0  0  0  0
   10.3610   41.4725   35.8740 O   0  0  0  0  0  1  0  0  0  0  0  0
    9.9353   45.1312   33.2965 C   0  0  1  0  0  0  0  0  0  0  0  0
   11.0786   46.0306   33.4601 N   0  0  0  0  0  0  0  0  0  0  0  0
    9.4086   45.1330   31.8409 C   0  0  0  0  0  0  0  0  0  0  0  0
   10.2579   44.3681   30.8494 C   0  0  0  0  0  0  0  0  0  0  0  0
    9.6974   43.3039   30.1224 C   0  0  0  0  0  0  0  0  0  0  0  0
   11.5798   44.7562   30.5774 C   0  0  0  0  0  0  0  0  0  0  0  0
   10.4528   42.6214   29.1643 C   0  0  0  0  0  0  0  0  0  0  0  0
   12.3392   44.0639   29.6294 C   0  0  0  0  0  0  0  0  0  0  0  0
   11.7885   42.9906   28.9205 C   0  0  0  0  0  0  0  0  0  0  0  0
   12.5958   42.3207   27.9894 O   0  0  0  0  0  0  0  0  0  0  0  0
   12.1734   41.1994   27.2201 C   0  0  0  0  0  0  0  0  0  0  0  0
    8.8042   40.1915   34.2091 O   0  0  0  0  0  0  0  0  0  0  0  0
   11.2362   40.7794   33.3779 O   0  0  0  0  0  0  0  0  0  0  0  0
   10.9283   40.6895   32.0025 C   0  0  0  0  0  0  0  0  0  0  0  0
   11.5291   39.3881   31.4388 C   0  0  0  0  0  0  0  0  0  0  0  0
   12.7527   39.0876   32.0806 O   0  0  0  0  0  0  0  0  0  0  0  0
   10.6129   38.1918   31.6467 C   0  0  0  0  0  0  0  0  0  0  0  0
   12.9378   37.6812   32.0297 C   0  0  0  0  0  0  0  0  0  0  0  0
    9.6164   38.0876   30.6534 O   0  0  0  0  0  0  0  0  0  0  0  0
   11.5785   37.0146   31.7015 C   0  0  0  0  0  0  0  0  0  0  0  0
   13.4904   37.2159   33.3241 N   0  0  0  0  0  0  0  0  0  0  0  0
   11.6199   36.3263   30.4724 O   0  0  0  0  0  0  0  0  0  0  0  0
   14.4764   36.3262   33.5731 C   0  0  0  0  0  0  0  0  0  0  0  0
   13.1180   37.6304   34.5691 C   0  0  0  0  0  0  0  0  0  0  0  0
   15.2067   35.6133   32.6741 N   0  0  0  0  0  0  0  0  0  0  0  0
   14.6736   36.2268   34.9185 C   0  0  0  0  0  0  0  0  0  0  0  0
   13.8229   37.0450   35.5786 N   0  0  0  0  0  0  0  0  0  0  0  0
   16.1641   34.7591   33.1548 C   0  0  0  0  0  0  0  0  0  0  0  0
   15.6520   35.3489   35.4133 C   0  0  0  0  0  0  0  0  0  0  0  0
   16.3796   34.6307   34.5043 N   0  0  0  0  0  0  0  0  0  0  0  0
   15.9006   35.1931   36.8091 N   0  0  0  0  0  0  0  0  0  0  0  0
    9.1084   45.5053   33.9422 H   0  0  0  0  0  0  0  0  0  0  0  0
   10.8077   46.9806   33.1162 H   0  0  0  0  0  0  0  0  0  0  0  0
   11.2658   46.1504   34.4831 H   0  0  0  0  0  0  0  0  0  0  0  0
    8.3776   44.7151   31.8538 H   0  0  0  0  0  0  0  0  0  0  0  0
    9.3031   46.1798   31.4830 H   0  0  0  0  0  0  0  0  0  0  0  0
    8.6740   42.9964   30.2977 H   0  0  0  0  0  0  0  0  0  0  0  0
   12.0247   45.5990   31.0879 H   0  0  0  0  0  0  0  0  0  0  0  0
    9.9937   41.8002   28.6313 H   0  0  0  0  0  0  0  0  0  0  0  0
   13.3612   44.3671   29.4401 H   0  0  0  0  0  0  0  0  0  0  0  0
   11.8836   40.3631   27.8906 H   0  0  0  0  0  0  0  0  0  0  0  0
   13.0125   40.8643   26.5767 H   0  0  0  0  0  0  0  0  0  0  0  0
   11.3183   41.4823   26.5706 H   0  0  0  0  0  0  0  0  0  0  0  0
   11.4304   41.5418   31.5031 H   0  0  0  0  0  0  0  0  0  0  0  0
    9.8426   40.7416   31.7502 H   0  0  0  0  0  0  0  0  0  0  0  0
   11.7302   39.5332   30.3530 H   0  0  0  0  0  0  0  0  0  0  0  0
   10.1138   38.2746   32.6381 H   0  0  0  0  0  0  0  0  0  0  0  0
   13.6725   37.4602   31.2237 H   0  0  0  0  0  0  0  0  0  0  0  0
   10.0553   38.1181   29.7637 H   0  0  0  0  0  0  0  0  0  0  0  0
   11.2631   36.3147   32.5107 H   0  0  0  0  0  0  0  0  0  0  0  0
   12.1517   35.5033   30.6314 H   0  0  0  0  0  0  0  0  0  0  0  0
   12.3360   38.3582   34.7445 H   0  0  0  0  0  0  0  0  0  0  0  0
   16.7577   34.1787   32.4621 H   0  0  0  0  0  0  0  0  0  0  0  0
   16.6366   34.5314   37.1417 H   0  0  0  0  0  0  0  0  0  0  0  0
   15.3533   35.7353   37.5140 H   0  0  0  0  0  0  0  0  0  0  0  0
  1  2  2  0
  1  3  1  0
  3  4  1  0
  4  5  1  0
  6  1  1  0
  7  6  1  0
  6  8  1  0
  8  9  1  0
  9 10  2  0
 11  9  1  0
 10 12  1  0
 13 11  2  0
 12 14  2  0
 14 13  1  0
 14 15  1  0
 15 16  1  0
  4 17  2  0
  4 18  1  0
 19 18  1  0
 19 20  1  0
 20 21  1  0
 20 22  1  0
 21 23  1  0
 22 24  1  0
 22 25  1  0
 25 23  1  0
 23 26  1  0
 25 27  1  0
 28 26  1  0
 29 26  1  0
 30 28  2  0
 28 31  1  0
 32 29  2  0
 33 30  1  0
 31 34  2  0
 31 32  1  0
 35 33  2  0
 35 34  1  0
 34 36  1  0
  6 37  1  1
  7 38  1  0
  7 39  1  0
  8 40  1  0
  8 41  1  0
 10 42  1  0
 11 43  1  0
 12 44  1  0
 13 45  1  0
 16 46  1  0
 16 47  1  0
 16 48  1  0
 19 49  1  0
 19 50  1  0
 20 51  1  0
 22 52  1  0
 23 53  1  0
 24 54  1  0
 25 55  1  0
 27 56  1  0
 29 57  1  0
 33 58  1  0
 36 59  1  0
 36 60  1  0
M  CHG  1   5  -1
M  END
>  <EmbedRMS>  (131) 
0.09053976072065019

$$$$

     RDKit          3D

 60 63  0  0  0  0  0  0  0  0999 V2000
   10.3000   43.7682   33.7925 C   0  0  0  0  0  0  0  0  0  0  0  0
   11.4162   43.5823   34.3593 O   0  0  0  0  0  0  0  0  0  0  0  0
    9.3692   42.7353   33.7058 O   0  0  0  0  0  0  0  0  0  0  0  0
    9.8859   41.2354   34.2841 P   0  0  0  0  0  5  0  0  0  0  0  0
   10.3693   41.4672   35.8741 O   0  0  0  0  0  1  0  0  0  0  0  0
    9.9796   45.1072   33.2190 C   0  0  1  0  0  0  0  0  0  0  0  0
   11.0353   46.0791   33.5233 N   0  0  0  0  0  0  0  0  0  0  0  0
    9.6911   45.0374   31.6961 C   0  0  0  0  0  0  0  0  0  0  0  0
   10.8941   45.2656   30.8025 C   0  0  0  0  0  0  0  0  0  0  0  0
   10.8854   46.3088   29.8610 C   0  0  0  0  0  0  0  0  0  0  0  0
   12.0157   44.4242   30.8722 C   0  0  0  0  0  0  0  0  0  0  0  0
   11.9780   46.5092   29.0120 C   0  0  0  0  0  0  0  0  0  0  0  0
   13.1081   44.6249   30.0246 C   0  0  0  0  0  0  0  0  0  0  0  0
   13.1008   45.6642   29.0886 C   0  0  0  0  0  0  0  0  0  0  0  0
   14.2213   45.8235   28.2599 O   0  0  0  0  0  0  0  0  0  0  0  0
   14.3489   46.8360   27.2669 C   0  0  0  0  0  0  0  0  0  0  0  0
    8.8073   40.1934   34.2084 O   0  0  0  0  0  0  0  0  0  0  0  0
   11.2355   40.7946   33.3622 O   0  0  0  0  0  0  0  0  0  0  0  0
   10.9027   40.6752   31.9926 C   0  0  0  0  0  0  0  0  0  0  0  0
   11.5133   39.3738   31.4415 C   0  0  0  0  0  0  0  0  0  0  0  0
   12.7456   39.0871   32.0774 O   0  0  0  0  0  0  0  0  0  0  0  0
   10.6040   38.1818   31.6665 C   0  0  0  0  0  0  0  0  0  0  0  0
   12.9410   37.6819   32.0281 C   0  0  0  0  0  0  0  0  0  0  0  0
    9.6349   38.0880   30.6507 O   0  0  0  0  0  0  0  0  0  0  0  0
   11.5836   37.0145   31.6932 C   0  0  0  0  0  0  0  0  0  0  0  0
   13.4910   37.2173   33.3241 N   0  0  0  0  0  0  0  0  0  0  0  0
   11.6157   36.3162   30.4663 O   0  0  0  0  0  0  0  0  0  0  0  0
   14.4764   36.3268   33.5735 C   0  0  0  0  0  0  0  0  0  0  0  0
   13.1180   37.6314   34.5690 C   0  0  0  0  0  0  0  0  0  0  0  0
   15.2068   35.6139   32.6744 N   0  0  0  0  0  0  0  0  0  0  0  0
   14.6733   36.2272   34.9187 C   0  0  0  0  0  0  0  0  0  0  0  0
   13.8224   37.0455   35.5786 N   0  0  0  0  0  0  0  0  0  0  0  0
   16.1640   34.7594   33.1551 C   0  0  0  0  0  0  0  0  0  0  0  0
   15.6516   35.3491   35.4135 C   0  0  0  0  0  0  0  0  0  0  0  0
   16.3794   34.6309   34.5046 N   0  0  0  0  0  0  0  0  0  0  0  0
   15.9003   35.1933   36.8093 N   0  0  0  0  0  0  0  0  0  0  0  0
    9.0441   45.4464   33.7174 H   0  0  0  0  0  0  0  0  0  0  0  0
   11.0539   46.2451   34.5564 H   0  0  0  0  0  0  0  0  0  0  0  0
   11.9768   45.7174   33.2481 H   0  0  0  0  0  0  0  0  0  0  0  0
    9.2317   44.0608   31.4287 H   0  0  0  0  0  0  0  0  0  0  0  0
    8.9158   45.8018   31.4682 H   0  0  0  0  0  0  0  0  0  0  0  0
   10.0312   46.9695   29.7797 H   0  0  0  0  0  0  0  0  0  0  0  0
   12.0608   43.6326   31.6028 H   0  0  0  0  0  0  0  0  0  0  0  0
   11.9386   47.3218   28.2996 H   0  0  0  0  0  0  0  0  0  0  0  0
   13.9680   43.9711   30.0987 H   0  0  0  0  0  0  0  0  0  0  0  0
   15.3316   46.7285   26.7637 H   0  0  0  0  0  0  0  0  0  0  0  0
   14.2983   47.8407   27.7373 H   0  0  0  0  0  0  0  0  0  0  0  0
   13.5465   46.7286   26.5068 H   0  0  0  0  0  0  0  0  0  0  0  0
    9.8109   40.7025   31.7632 H   0  0  0  0  0  0  0  0  0  0  0  0
   11.3627   41.5216   31.4499 H   0  0  0  0  0  0  0  0  0  0  0  0
   11.6961   39.4997   30.3491 H   0  0  0  0  0  0  0  0  0  0  0  0
   10.1110   38.2646   32.6641 H   0  0  0  0  0  0  0  0  0  0  0  0
   13.6822   37.4643   31.2273 H   0  0  0  0  0  0  0  0  0  0  0  0
    9.0037   37.3763   30.9339 H   0  0  0  0  0  0  0  0  0  0  0  0
   11.2870   36.2992   32.4916 H   0  0  0  0  0  0  0  0  0  0  0  0
   11.8870   36.9581   29.7585 H   0  0  0  0  0  0  0  0  0  0  0  0
   12.3363   38.3596   34.7442 H   0  0  0  0  0  0  0  0  0  0  0  0
   16.7575   34.1790   32.4624 H   0  0  0  0  0  0  0  0  0  0  0  0
   16.6364   34.5316   37.1418 H   0  0  0  0  0  0  0  0  0  0  0  0
   15.3530   35.7355   37.5142 H   0  0  0  0  0  0  0  0  0  0  0  0
  1  2  2  0
  1  3  1  0
  3  4  1  0
  4  5  1  0
  6  1  1  0
  7  6  1  0
  6  8  1  0
  8  9  1  0
  9 10  2  0
 11  9  1  0
 10 12  1  0
 13 11  2  0
 12 14  2  0
 14 13  1  0
 14 15  1  0
 15 16  1  0
  4 17  2  0
  4 18  1  0
 19 18  1  0
 19 20  1  0
 20 21  1  0
 20 22  1  0
 21 23  1  0
 22 24  1  0
 22 25  1  0
 25 23  1  0
 23 26  1  0
 25 27  1  0
 28 26  1  0
 29 26  1  0
 30 28  2  0
 28 31  1  0
 32 29  2  0
 33 30  1  0
 31 34  2  0
 31 32  1  0
 35 33  2  0
 35 34  1  0
 34 36  1  0
  6 37  1  1
  7 38  1  0
  7 39  1  0
  8 40  1  0
  8 41  1  0
 10 42  1  0
 11 43  1  0
 12 44  1  0
 13 45  1  0
 16 46  1  0
 16 47  1  0
 16 48  1  0
 19 49  1  0
 19 50  1  0
 20 51  1  0
 22 52  1  0
 23 53  1  0
 24 54  1  0
 25 55  1  0
 27 56  1  0
 29 57  1  0
 33 58  1  0
 36 59  1  0
 36 60  1  0
M  CHG  1   5  -1
M  END
>  <EmbedRMS>  (132) 
0.09005762839859534

$$$$

     RDKit          3D

 60 63  0  0  0  0  0  0  0  0999 V2000
   10.2940   43.7721   33.7965 C   0  0  0  0  0  0  0  0  0  0  0  0
   11.4139   43.5897   34.3580 O   0  0  0  0  0  0  0  0  0  0  0  0
    9.3667   42.7362   33.7093 O   0  0  0  0  0  0  0  0  0  0  0  0
    9.8863   41.2365   34.2854 P   0  0  0  0  0  5  0  0  0  0  0  0
   10.3697   41.4676   35.8754 O   0  0  0  0  0  1  0  0  0  0  0  0
    9.9761   45.1033   33.2098 C   0  0  1  0  0  0  0  0  0  0  0  0
   11.0442   46.0544   33.5249 N   0  0  0  0  0  0  0  0  0  0  0  0
    9.7492   45.0008   31.6777 C   0  0  0  0  0  0  0  0  0  0  0  0
   10.9949   45.2140   30.8390 C   0  0  0  0  0  0  0  0  0  0  0  0
   12.1348   44.4126   31.0159 C   0  0  0  0  0  0  0  0  0  0  0  0
   11.0106   46.2058   29.8437 C   0  0  0  0  0  0  0  0  0  0  0  0
   13.2688   44.6029   30.2215 C   0  0  0  0  0  0  0  0  0  0  0  0
   12.1449   46.3960   29.0495 C   0  0  0  0  0  0  0  0  0  0  0  0
   13.2809   45.5999   29.2288 C   0  0  0  0  0  0  0  0  0  0  0  0
   14.3934   45.8296   28.4059 O   0  0  0  0  0  0  0  0  0  0  0  0
   15.6114   45.0956   28.4779 C   0  0  0  0  0  0  0  0  0  0  0  0
    8.8087   40.1934   34.2090 O   0  0  0  0  0  0  0  0  0  0  0  0
   11.2364   40.7964   33.3641 O   0  0  0  0  0  0  0  0  0  0  0  0
   10.9059   40.6822   31.9938 C   0  0  0  0  0  0  0  0  0  0  0  0
   11.5239   39.3858   31.4378 C   0  0  0  0  0  0  0  0  0  0  0  0
   12.7479   39.0910   32.0852 O   0  0  0  0  0  0  0  0  0  0  0  0
   10.6113   38.1874   31.6455 C   0  0  0  0  0  0  0  0  0  0  0  0
   12.9427   37.6851   32.0298 C   0  0  0  0  0  0  0  0  0  0  0  0
    9.6061   38.0821   30.6604 O   0  0  0  0  0  0  0  0  0  0  0  0
   11.5852   37.0163   31.6876 C   0  0  0  0  0  0  0  0  0  0  0  0
   13.4899   37.2163   33.3251 N   0  0  0  0  0  0  0  0  0  0  0  0
   11.6216   36.3051   30.4684 O   0  0  0  0  0  0  0  0  0  0  0  0
   14.4759   36.3263   33.5739 C   0  0  0  0  0  0  0  0  0  0  0  0
   13.1176   37.6307   34.5700 C   0  0  0  0  0  0  0  0  0  0  0  0
   15.2065   35.6139   32.6746 N   0  0  0  0  0  0  0  0  0  0  0  0
   14.6732   36.2267   34.9191 C   0  0  0  0  0  0  0  0  0  0  0  0
   13.8225   37.0450   35.5793 N   0  0  0  0  0  0  0  0  0  0  0  0
   16.1640   34.7596   33.1551 C   0  0  0  0  0  0  0  0  0  0  0  0
   15.6518   35.3489   35.4136 C   0  0  0  0  0  0  0  0  0  0  0  0
   16.3795   34.6309   34.5046 N   0  0  0  0  0  0  0  0  0  0  0  0
   15.9006   35.1930   36.8094 N   0  0  0  0  0  0  0  0  0  0  0  0
    9.0288   45.4514   33.6808 H   0  0  0  0  0  0  0  0  0  0  0  0
   11.0603   46.2028   34.5609 H   0  0  0  0  0  0  0  0  0  0  0  0
   10.7872   46.9814   33.1133 H   0  0  0  0  0  0  0  0  0  0  0  0
    8.9864   45.7626   31.4034 H   0  0  0  0  0  0  0  0  0  0  0  0
    9.3016   44.0195   31.4075 H   0  0  0  0  0  0  0  0  0  0  0  0
   12.1578   43.6493   31.7775 H   0  0  0  0  0  0  0  0  0  0  0  0
   10.1445   46.8346   29.6788 H   0  0  0  0  0  0  0  0  0  0  0  0
   14.1302   43.9707   30.3886 H   0  0  0  0  0  0  0  0  0  0  0  0
   12.1404   47.1659   28.2882 H   0  0  0  0  0  0  0  0  0  0  0  0
   16.3153   45.4855   27.7144 H   0  0  0  0  0  0  0  0  0  0  0  0
   15.4223   44.0209   28.2715 H   0  0  0  0  0  0  0  0  0  0  0  0
   16.0717   45.2171   29.4812 H   0  0  0  0  0  0  0  0  0  0  0  0
    9.8141   40.7037   31.7639 H   0  0  0  0  0  0  0  0  0  0  0  0
   11.3604   41.5374   31.4570 H   0  0  0  0  0  0  0  0  0  0  0  0
   11.7293   39.5291   30.3523 H   0  0  0  0  0  0  0  0  0  0  0  0
   10.1206   38.2626   32.6418 H   0  0  0  0  0  0  0  0  0  0  0  0
   13.6886   37.4724   31.2323 H   0  0  0  0  0  0  0  0  0  0  0  0
   10.0248   38.1696   29.7656 H   0  0  0  0  0  0  0  0  0  0  0  0
   11.2814   36.3090   32.4907 H   0  0  0  0  0  0  0  0  0  0  0  0
   11.9891   36.9092   29.7713 H   0  0  0  0  0  0  0  0  0  0  0  0
   12.3366   38.3595   34.7455 H   0  0  0  0  0  0  0  0  0  0  0  0
   16.7576   34.1794   32.4622 H   0  0  0  0  0  0  0  0  0  0  0  0
   15.3533   35.7351   37.5144 H   0  0  0  0  0  0  0  0  0  0  0  0
   16.6369   34.5315   37.1418 H   0  0  0  0  0  0  0  0  0  0  0  0
  1  2  2  0
  1  3  1  0
  3  4  1  0
  4  5  1  0
  6  1  1  0
  7  6  1  0
  6  8  1  0
  8  9  1  0
  9 10  2  0
 11  9  1  0
 10 12  1  0
 13 11  2  0
 12 14  2  0
 14 13  1  0
 14 15  1  0
 15 16  1  0
  4 17  2  0
  4 18  1  0
 19 18  1  0
 19 20  1  0
 20 21  1  0
 20 22  1  0
 21 23  1  0
 22 24  1  0
 22 25  1  0
 25 23  1  0
 23 26  1  0
 25 27  1  0
 28 26  1  0
 29 26  1  0
 30 28  2  0
 28 31  1  0
 32 29  2  0
 33 30  1  0
 31 34  2  0
 31 32  1  0
 35 33  2  0
 35 34  1  0
 34 36  1  0
  6 37  1  1
  7 38  1  0
  7 39  1  0
  8 40  1  0
  8 41  1  0
 10 42  1  0
 11 43  1  0
 12 44  1  0
 13 45  1  0
 16 46  1  0
 16 47  1  0
 16 48  1  0
 19 49  1  0
 19 50  1  0
 20 51  1  0
 22 52  1  0
 23 53  1  0
 24 54  1  0
 25 55  1  0
 27 56  1  0
 29 57  1  0
 33 58  1  0
 36 59  1  0
 36 60  1  0
M  CHG  1   5  -1
M  END
>  <EmbedRMS>  (133) 
0.0877555091832967

$$$$

     RDKit          3D

 60 63  0  0  0  0  0  0  0  0999 V2000
   10.2865   43.7697   33.7827 C   0  0  0  0  0  0  0  0  0  0  0  0
   11.4110   43.5817   34.3348 O   0  0  0  0  0  0  0  0  0  0  0  0
    9.3641   42.7312   33.6896 O   0  0  0  0  0  0  0  0  0  0  0  0
    9.8819   41.2348   34.2818 P   0  0  0  0  0  5  0  0  0  0  0  0
   10.3603   41.4747   35.8725 O   0  0  0  0  0  1  0  0  0  0  0  0
    9.9269   45.1412   33.3253 C   0  0  1  0  0  0  0  0  0  0  0  0
   11.0859   46.0262   33.4479 N   0  0  0  0  0  0  0  0  0  0  0  0
    9.2632   45.2060   31.9269 C   0  0  0  0  0  0  0  0  0  0  0  0
   10.0248   44.5158   30.8207 C   0  0  0  0  0  0  0  0  0  0  0  0
    9.5795   43.2794   30.3273 C   0  0  0  0  0  0  0  0  0  0  0  0
   11.1321   45.1322   30.2171 C   0  0  0  0  0  0  0  0  0  0  0  0
   10.2507   42.6519   29.2738 C   0  0  0  0  0  0  0  0  0  0  0  0
   11.8125   44.4975   29.1736 C   0  0  0  0  0  0  0  0  0  0  0  0
   11.3859   43.2521   28.6988 C   0  0  0  0  0  0  0  0  0  0  0  0
   12.1106   42.6487   27.6605 O   0  0  0  0  0  0  0  0  0  0  0  0
   11.8083   41.3718   27.1074 C   0  0  0  0  0  0  0  0  0  0  0  0
    8.8045   40.1918   34.2084 O   0  0  0  0  0  0  0  0  0  0  0  0
   11.2371   40.7790   33.3776 O   0  0  0  0  0  0  0  0  0  0  0  0
   10.9293   40.6878   32.0023 C   0  0  0  0  0  0  0  0  0  0  0  0
   11.5291   39.3868   31.4386 C   0  0  0  0  0  0  0  0  0  0  0  0
   12.7528   39.0853   32.0790 O   0  0  0  0  0  0  0  0  0  0  0  0
   10.6112   38.1922   31.6478 C   0  0  0  0  0  0  0  0  0  0  0  0
   12.9356   37.6785   32.0289 C   0  0  0  0  0  0  0  0  0  0  0  0
    9.6142   38.0905   30.6546 O   0  0  0  0  0  0  0  0  0  0  0  0
   11.5763   37.0133   31.7025 C   0  0  0  0  0  0  0  0  0  0  0  0
   13.4900   37.2150   33.3236 N   0  0  0  0  0  0  0  0  0  0  0  0
   11.6308   36.3236   30.4738 O   0  0  0  0  0  0  0  0  0  0  0  0
   14.4765   36.3259   33.5729 C   0  0  0  0  0  0  0  0  0  0  0  0
   13.1179   37.6300   34.5687 C   0  0  0  0  0  0  0  0  0  0  0  0
   15.2068   35.6129   32.6741 N   0  0  0  0  0  0  0  0  0  0  0  0
   14.6738   36.2269   34.9183 C   0  0  0  0  0  0  0  0  0  0  0  0
   13.8229   37.0451   35.5783 N   0  0  0  0  0  0  0  0  0  0  0  0
   16.1644   34.7589   33.1549 C   0  0  0  0  0  0  0  0  0  0  0  0
   15.6521   35.3490   35.4133 C   0  0  0  0  0  0  0  0  0  0  0  0
   16.3798   34.6307   34.5045 N   0  0  0  0  0  0  0  0  0  0  0  0
   15.9006   35.1933   36.8092 N   0  0  0  0  0  0  0  0  0  0  0  0
    9.1656   45.5091   34.0480 H   0  0  0  0  0  0  0  0  0  0  0  0
   10.8126   46.9929   33.1566 H   0  0  0  0  0  0  0  0  0  0  0  0
   11.8483   45.7041   32.8099 H   0  0  0  0  0  0  0  0  0  0  0  0
    8.2442   44.7664   32.0061 H   0  0  0  0  0  0  0  0  0  0  0  0
    9.1041   46.2696   31.6450 H   0  0  0  0  0  0  0  0  0  0  0  0
    8.7109   42.7975   30.7587 H   0  0  0  0  0  0  0  0  0  0  0  0
   11.4621   46.1103   30.5422 H   0  0  0  0  0  0  0  0  0  0  0  0
    9.8878   41.6944   28.9259 H   0  0  0  0  0  0  0  0  0  0  0  0
   12.6731   44.9792   28.7269 H   0  0  0  0  0  0  0  0  0  0  0  0
   12.5477   41.1355   26.3151 H   0  0  0  0  0  0  0  0  0  0  0  0
   11.8683   40.5908   27.8946 H   0  0  0  0  0  0  0  0  0  0  0  0
   10.7940   41.3818   26.6555 H   0  0  0  0  0  0  0  0  0  0  0  0
   11.4295   41.5405   31.4997 H   0  0  0  0  0  0  0  0  0  0  0  0
    9.8431   40.7328   31.7529 H   0  0  0  0  0  0  0  0  0  0  0  0
   11.7291   39.5315   30.3523 H   0  0  0  0  0  0  0  0  0  0  0  0
   10.1130   38.2746   32.6395 H   0  0  0  0  0  0  0  0  0  0  0  0
   13.6690   37.4548   31.2223 H   0  0  0  0  0  0  0  0  0  0  0  0
   10.0530   38.1196   29.7649 H   0  0  0  0  0  0  0  0  0  0  0  0
   11.2791   36.3128   32.5192 H   0  0  0  0  0  0  0  0  0  0  0  0
   10.8595   35.6985   30.4634 H   0  0  0  0  0  0  0  0  0  0  0  0
   12.3355   38.3574   34.7439 H   0  0  0  0  0  0  0  0  0  0  0  0
   16.7579   34.1784   32.4623 H   0  0  0  0  0  0  0  0  0  0  0  0
   16.6365   34.5316   37.1418 H   0  0  0  0  0  0  0  0  0  0  0  0
   15.3532   35.7355   37.5139 H   0  0  0  0  0  0  0  0  0  0  0  0
  1  2  2  0
  1  3  1  0
  3  4  1  0
  4  5  1  0
  6  1  1  0
  7  6  1  0
  6  8  1  0
  8  9  1  0
  9 10  2  0
 11  9  1  0
 10 12  1  0
 13 11  2  0
 12 14  2  0
 14 13  1  0
 14 15  1  0
 15 16  1  0
  4 17  2  0
  4 18  1  0
 19 18  1  0
 19 20  1  0
 20 21  1  0
 20 22  1  0
 21 23  1  0
 22 24  1  0
 22 25  1  0
 25 23  1  0
 23 26  1  0
 25 27  1  0
 28 26  1  0
 29 26  1  0
 30 28  2  0
 28 31  1  0
 32 29  2  0
 33 30  1  0
 31 34  2  0
 31 32  1  0
 35 33  2  0
 35 34  1  0
 34 36  1  0
  6 37  1  1
  7 38  1  0
  7 39  1  0
  8 40  1  0
  8 41  1  0
 10 42  1  0
 11 43  1  0
 12 44  1  0
 13 45  1  0
 16 46  1  0
 16 47  1  0
 16 48  1  0
 19 49  1  0
 19 50  1  0
 20 51  1  0
 22 52  1  0
 23 53  1  0
 24 54  1  0
 25 55  1  0
 27 56  1  0
 29 57  1  0
 33 58  1  0
 36 59  1  0
 36 60  1  0
M  CHG  1   5  -1
M  END
>  <EmbedRMS>  (134) 
0.09212684499206424

$$$$

     RDKit          3D

 60 63  0  0  0  0  0  0  0  0999 V2000
   10.2867   43.7697   33.7825 C   0  0  0  0  0  0  0  0  0  0  0  0
   11.4111   43.5817   34.3348 O   0  0  0  0  0  0  0  0  0  0  0  0
    9.3644   42.7311   33.6893 O   0  0  0  0  0  0  0  0  0  0  0  0
    9.8824   41.2346   34.2814 P   0  0  0  0  0  5  0  0  0  0  0  0
   10.3601   41.4746   35.8723 O   0  0  0  0  0  1  0  0  0  0  0  0
    9.9272   45.1412   33.3249 C   0  0  1  0  0  0  0  0  0  0  0  0
   11.0855   46.0268   33.4493 N   0  0  0  0  0  0  0  0  0  0  0  0
    9.2660   45.2056   31.9254 C   0  0  0  0  0  0  0  0  0  0  0  0
   10.0390   44.5300   30.8181 C   0  0  0  0  0  0  0  0  0  0  0  0
    9.6120   43.2894   30.3195 C   0  0  0  0  0  0  0  0  0  0  0  0
   11.1393   45.1636   30.2195 C   0  0  0  0  0  0  0  0  0  0  0  0
   10.2955   42.6740   29.2668 C   0  0  0  0  0  0  0  0  0  0  0  0
   11.8315   44.5416   29.1763 C   0  0  0  0  0  0  0  0  0  0  0  0
   11.4239   43.2916   28.6970 C   0  0  0  0  0  0  0  0  0  0  0  0
   12.1603   42.7011   27.6594 O   0  0  0  0  0  0  0  0  0  0  0  0
   11.8788   41.4208   27.1033 C   0  0  0  0  0  0  0  0  0  0  0  0
    8.8051   40.1916   34.2076 O   0  0  0  0  0  0  0  0  0  0  0  0
   11.2384   40.7794   33.3777 O   0  0  0  0  0  0  0  0  0  0  0  0
   10.9324   40.6880   32.0019 C   0  0  0  0  0  0  0  0  0  0  0  0
   11.5210   39.3795   31.4416 C   0  0  0  0  0  0  0  0  0  0  0  0
   12.7520   39.0835   32.0719 O   0  0  0  0  0  0  0  0  0  0  0  0
   10.6043   38.1902   31.6670 C   0  0  0  0  0  0  0  0  0  0  0  0
   12.9343   37.6773   32.0276 C   0  0  0  0  0  0  0  0  0  0  0  0
    9.6411   38.0805   30.6455 O   0  0  0  0  0  0  0  0  0  0  0  0
   11.5736   37.0152   31.7058 C   0  0  0  0  0  0  0  0  0  0  0  0
   13.4902   37.2163   33.3231 N   0  0  0  0  0  0  0  0  0  0  0  0
   11.6199   36.3376   30.4694 O   0  0  0  0  0  0  0  0  0  0  0  0
   14.4763   36.3266   33.5727 C   0  0  0  0  0  0  0  0  0  0  0  0
   13.1178   37.6310   34.5682 C   0  0  0  0  0  0  0  0  0  0  0  0
   15.2066   35.6133   32.6739 N   0  0  0  0  0  0  0  0  0  0  0  0
   14.6736   36.2275   34.9181 C   0  0  0  0  0  0  0  0  0  0  0  0
   13.8226   37.0457   35.5779 N   0  0  0  0  0  0  0  0  0  0  0  0
   16.1640   34.7591   33.1549 C   0  0  0  0  0  0  0  0  0  0  0  0
   15.6518   35.3493   35.4131 C   0  0  0  0  0  0  0  0  0  0  0  0
   16.3794   34.6309   34.5044 N   0  0  0  0  0  0  0  0  0  0  0  0
   15.9003   35.1935   36.8090 N   0  0  0  0  0  0  0  0  0  0  0  0
    9.1643   45.5084   34.0462 H   0  0  0  0  0  0  0  0  0  0  0  0
   11.8501   45.7040   32.8143 H   0  0  0  0  0  0  0  0  0  0  0  0
   10.8127   46.9929   33.1556 H   0  0  0  0  0  0  0  0  0  0  0  0
    9.0962   46.2689   31.6487 H   0  0  0  0  0  0  0  0  0  0  0  0
    8.2517   44.7543   31.9994 H   0  0  0  0  0  0  0  0  0  0  0  0
    8.7481   42.7951   30.7462 H   0  0  0  0  0  0  0  0  0  0  0  0
   11.4552   46.1449   30.5491 H   0  0  0  0  0  0  0  0  0  0  0  0
    9.9467   41.7126   28.9150 H   0  0  0  0  0  0  0  0  0  0  0  0
   12.6867   45.0364   28.7336 H   0  0  0  0  0  0  0  0  0  0  0  0
   11.9483   40.6395   27.8896 H   0  0  0  0  0  0  0  0  0  0  0  0
   10.8658   41.4164   26.6484 H   0  0  0  0  0  0  0  0  0  0  0  0
   12.6241   41.1970   26.3129 H   0  0  0  0  0  0  0  0  0  0  0  0
   11.4442   41.5333   31.4985 H   0  0  0  0  0  0  0  0  0  0  0  0
    9.8485   40.7505   31.7506 H   0  0  0  0  0  0  0  0  0  0  0  0
   11.6998   39.5071   30.3489 H   0  0  0  0  0  0  0  0  0  0  0  0
   10.1090   38.2645   32.6646 H   0  0  0  0  0  0  0  0  0  0  0  0
   13.6660   37.4497   31.2206 H   0  0  0  0  0  0  0  0  0  0  0  0
    8.9092   38.7105   30.8737 H   0  0  0  0  0  0  0  0  0  0  0  0
   11.2835   36.3061   32.5175 H   0  0  0  0  0  0  0  0  0  0  0  0
   10.8500   35.7110   30.4585 H   0  0  0  0  0  0  0  0  0  0  0  0
   12.3351   38.3581   34.7434 H   0  0  0  0  0  0  0  0  0  0  0  0
   16.7575   34.1785   32.4623 H   0  0  0  0  0  0  0  0  0  0  0  0
   16.6361   34.5317   37.1417 H   0  0  0  0  0  0  0  0  0  0  0  0
   15.3529   35.7359   37.5138 H   0  0  0  0  0  0  0  0  0  0  0  0
  1  2  2  0
  1  3  1  0
  3  4  1  0
  4  5  1  0
  6  1  1  0
  7  6  1  0
  6  8  1  0
  8  9  1  0
  9 10  2  0
 11  9  1  0
 10 12  1  0
 13 11  2  0
 12 14  2  0
 14 13  1  0
 14 15  1  0
 15 16  1  0
  4 17  2  0
  4 18  1  0
 19 18  1  0
 19 20  1  0
 20 21  1  0
 20 22  1  0
 21 23  1  0
 22 24  1  0
 22 25  1  0
 25 23  1  0
 23 26  1  0
 25 27  1  0
 28 26  1  0
 29 26  1  0
 30 28  2  0
 28 31  1  0
 32 29  2  0
 33 30  1  0
 31 34  2  0
 31 32  1  0
 35 33  2  0
 35 34  1  0
 34 36  1  0
  6 37  1  1
  7 38  1  0
  7 39  1  0
  8 40  1  0
  8 41  1  0
 10 42  1  0
 11 43  1  0
 12 44  1  0
 13 45  1  0
 16 46  1  0
 16 47  1  0
 16 48  1  0
 19 49  1  0
 19 50  1  0
 20 51  1  0
 22 52  1  0
 23 53  1  0
 24 54  1  0
 25 55  1  0
 27 56  1  0
 29 57  1  0
 33 58  1  0
 36 59  1  0
 36 60  1  0
M  CHG  1   5  -1
M  END
>  <EmbedRMS>  (135) 
0.09334959752648463

$$$$

     RDKit          3D

 60 63  0  0  0  0  0  0  0  0999 V2000
   10.2942   43.7719   33.7962 C   0  0  0  0  0  0  0  0  0  0  0  0
   11.4141   43.5897   34.3578 O   0  0  0  0  0  0  0  0  0  0  0  0
    9.3672   42.7358   33.7087 O   0  0  0  0  0  0  0  0  0  0  0  0
    9.8871   41.2359   34.2845 P   0  0  0  0  0  5  0  0  0  0  0  0
   10.3697   41.4673   35.8747 O   0  0  0  0  0  1  0  0  0  0  0  0
    9.9760   45.1032   33.2098 C   0  0  1  0  0  0  0  0  0  0  0  0
   11.0438   46.0545   33.5254 N   0  0  0  0  0  0  0  0  0  0  0  0
    9.7495   45.0009   31.6776 C   0  0  0  0  0  0  0  0  0  0  0  0
   10.9951   45.2171   30.8397 C   0  0  0  0  0  0  0  0  0  0  0  0
   11.0117   46.2138   29.8492 C   0  0  0  0  0  0  0  0  0  0  0  0
   12.1347   44.4150   31.0141 C   0  0  0  0  0  0  0  0  0  0  0  0
   12.1464   46.4092   29.0561 C   0  0  0  0  0  0  0  0  0  0  0  0
   13.2685   44.6105   30.2213 C   0  0  0  0  0  0  0  0  0  0  0  0
   13.2867   45.6050   29.2381 C   0  0  0  0  0  0  0  0  0  0  0  0
   14.4491   45.7612   28.4686 O   0  0  0  0  0  0  0  0  0  0  0  0
   14.6059   46.7302   27.4371 C   0  0  0  0  0  0  0  0  0  0  0  0
    8.8093   40.1931   34.2080 O   0  0  0  0  0  0  0  0  0  0  0  0
   11.2379   40.7958   33.3636 O   0  0  0  0  0  0  0  0  0  0  0  0
   10.9098   40.6814   31.9926 C   0  0  0  0  0  0  0  0  0  0  0  0
   11.5149   39.3759   31.4402 C   0  0  0  0  0  0  0  0  0  0  0  0
   12.7456   39.0869   32.0761 O   0  0  0  0  0  0  0  0  0  0  0  0
   10.6043   38.1833   31.6661 C   0  0  0  0  0  0  0  0  0  0  0  0
   12.9358   37.6813   32.0291 C   0  0  0  0  0  0  0  0  0  0  0  0
    9.6416   38.0701   30.6447 O   0  0  0  0  0  0  0  0  0  0  0  0
   11.5771   37.0135   31.7043 C   0  0  0  0  0  0  0  0  0  0  0  0
   13.4909   37.2182   33.3238 N   0  0  0  0  0  0  0  0  0  0  0  0
   11.6115   36.3389   30.4672 O   0  0  0  0  0  0  0  0  0  0  0  0
   14.4762   36.3273   33.5729 C   0  0  0  0  0  0  0  0  0  0  0  0
   13.1181   37.6318   34.5690 C   0  0  0  0  0  0  0  0  0  0  0  0
   15.2063   35.6140   32.6739 N   0  0  0  0  0  0  0  0  0  0  0  0
   14.6734   36.2275   34.9183 C   0  0  0  0  0  0  0  0  0  0  0  0
   13.8227   37.0456   35.5784 N   0  0  0  0  0  0  0  0  0  0  0  0
   16.1636   34.7595   33.1546 C   0  0  0  0  0  0  0  0  0  0  0  0
   15.6516   35.3492   35.4130 C   0  0  0  0  0  0  0  0  0  0  0  0
   16.3791   34.6310   34.5041 N   0  0  0  0  0  0  0  0  0  0  0  0
   15.9003   35.1933   36.8089 N   0  0  0  0  0  0  0  0  0  0  0  0
    9.0285   45.4509   33.6807 H   0  0  0  0  0  0  0  0  0  0  0  0
   11.0599   46.2024   34.5614 H   0  0  0  0  0  0  0  0  0  0  0  0
   10.7865   46.9816   33.1142 H   0  0  0  0  0  0  0  0  0  0  0  0
    8.9851   45.7611   31.4033 H   0  0  0  0  0  0  0  0  0  0  0  0
    9.3040   44.0187   31.4068 H   0  0  0  0  0  0  0  0  0  0  0  0
   10.1453   46.8430   29.6873 H   0  0  0  0  0  0  0  0  0  0  0  0
   12.1577   43.6481   31.7721 H   0  0  0  0  0  0  0  0  0  0  0  0
   12.1256   47.1863   28.3043 H   0  0  0  0  0  0  0  0  0  0  0  0
   14.1398   43.9860   30.3732 H   0  0  0  0  0  0  0  0  0  0  0  0
   13.8533   46.5623   26.6379 H   0  0  0  0  0  0  0  0  0  0  0  0
   15.6193   46.6308   26.9973 H   0  0  0  0  0  0  0  0  0  0  0  0
   14.4983   47.7535   27.8549 H   0  0  0  0  0  0  0  0  0  0  0  0
    9.8201   40.7233   31.7597 H   0  0  0  0  0  0  0  0  0  0  0  0
   11.3790   41.5282   31.4552 H   0  0  0  0  0  0  0  0  0  0  0  0
   11.6976   39.4995   30.3476 H   0  0  0  0  0  0  0  0  0  0  0  0
   10.1096   38.2565   32.6644 H   0  0  0  0  0  0  0  0  0  0  0  0
   13.6699   37.4600   31.2226 H   0  0  0  0  0  0  0  0  0  0  0  0
    8.8946   38.6769   30.8863 H   0  0  0  0  0  0  0  0  0  0  0  0
   11.2708   36.3035   32.5083 H   0  0  0  0  0  0  0  0  0  0  0  0
   12.1457   35.5150   30.6135 H   0  0  0  0  0  0  0  0  0  0  0  0
   12.3359   38.3592   34.7446 H   0  0  0  0  0  0  0  0  0  0  0  0
   16.7569   34.1789   32.4618 H   0  0  0  0  0  0  0  0  0  0  0  0
   16.6362   34.5315   37.1414 H   0  0  0  0  0  0  0  0  0  0  0  0
   15.3531   35.7356   37.5138 H   0  0  0  0  0  0  0  0  0  0  0  0
  1  2  2  0
  1  3  1  0
  3  4  1  0
  4  5  1  0
  6  1  1  0
  7  6  1  0
  6  8  1  0
  8  9  1  0
  9 10  2  0
 11  9  1  0
 10 12  1  0
 13 11  2  0
 12 14  2  0
 14 13  1  0
 14 15  1  0
 15 16  1  0
  4 17  2  0
  4 18  1  0
 19 18  1  0
 19 20  1  0
 20 21  1  0
 20 22  1  0
 21 23  1  0
 22 24  1  0
 22 25  1  0
 25 23  1  0
 23 26  1  0
 25 27  1  0
 28 26  1  0
 29 26  1  0
 30 28  2  0
 28 31  1  0
 32 29  2  0
 33 30  1  0
 31 34  2  0
 31 32  1  0
 35 33  2  0
 35 34  1  0
 34 36  1  0
  6 37  1  1
  7 38  1  0
  7 39  1  0
  8 40  1  0
  8 41  1  0
 10 42  1  0
 11 43  1  0
 12 44  1  0
 13 45  1  0
 16 46  1  0
 16 47  1  0
 16 48  1  0
 19 49  1  0
 19 50  1  0
 20 51  1  0
 22 52  1  0
 23 53  1  0
 24 54  1  0
 25 55  1  0
 27 56  1  0
 29 57  1  0
 33 58  1  0
 36 59  1  0
 36 60  1  0
M  CHG  1   5  -1
M  END
>  <EmbedRMS>  (136) 
0.09012182007702764

$$$$

     RDKit          3D

 60 63  0  0  0  0  0  0  0  0999 V2000
   10.2896   43.7707   33.7895 C   0  0  0  0  0  0  0  0  0  0  0  0
   11.4145   43.5857   34.3411 O   0  0  0  0  0  0  0  0  0  0  0  0
    9.3636   42.7337   33.7101 O   0  0  0  0  0  0  0  0  0  0  0  0
    9.8848   41.2349   34.2868 P   0  0  0  0  0  5  0  0  0  0  0  0
   10.3672   41.4682   35.8766 O   0  0  0  0  0  1  0  0  0  0  0  0
    9.9608   45.1137   33.2266 C   0  0  1  0  0  0  0  0  0  0  0  0
   11.0591   46.0381   33.5132 N   0  0  0  0  0  0  0  0  0  0  0  0
    9.7321   45.0497   31.6987 C   0  0  0  0  0  0  0  0  0  0  0  0
    8.5442   44.2021   31.3076 C   0  0  0  0  0  0  0  0  0  0  0  0
    7.2490   44.5539   31.7201 C   0  0  0  0  0  0  0  0  0  0  0  0
    8.7214   43.0572   30.5153 C   0  0  0  0  0  0  0  0  0  0  0  0
    6.1569   43.7505   31.3798 C   0  0  0  0  0  0  0  0  0  0  0  0
    7.6301   42.2520   30.1785 C   0  0  0  0  0  0  0  0  0  0  0  0
    6.3362   42.5919   30.6155 C   0  0  0  0  0  0  0  0  0  0  0  0
    5.2106   41.8119   30.3117 O   0  0  0  0  0  0  0  0  0  0  0  0
    5.2501   40.6045   29.5580 C   0  0  0  0  0  0  0  0  0  0  0  0
    8.8071   40.1922   34.2102 O   0  0  0  0  0  0  0  0  0  0  0  0
   11.2366   40.7901   33.3703 O   0  0  0  0  0  0  0  0  0  0  0  0
   10.9147   40.6862   31.9980 C   0  0  0  0  0  0  0  0  0  0  0  0
   11.5260   39.3869   31.4380 C   0  0  0  0  0  0  0  0  0  0  0  0
   12.7493   39.0891   32.0825 O   0  0  0  0  0  0  0  0  0  0  0  0
   10.6122   38.1890   31.6464 C   0  0  0  0  0  0  0  0  0  0  0  0
   12.9373   37.6826   32.0302 C   0  0  0  0  0  0  0  0  0  0  0  0
    9.6149   38.0844   30.6539 O   0  0  0  0  0  0  0  0  0  0  0  0
   11.5793   37.0135   31.7012 C   0  0  0  0  0  0  0  0  0  0  0  0
   13.4905   37.2167   33.3243 N   0  0  0  0  0  0  0  0  0  0  0  0
   11.6215   36.3256   30.4721 O   0  0  0  0  0  0  0  0  0  0  0  0
   14.4763   36.3265   33.5731 C   0  0  0  0  0  0  0  0  0  0  0  0
   13.1181   37.6307   34.5694 C   0  0  0  0  0  0  0  0  0  0  0  0
   15.2065   35.6136   32.6740 N   0  0  0  0  0  0  0  0  0  0  0  0
   14.6736   36.2269   34.9185 C   0  0  0  0  0  0  0  0  0  0  0  0
   13.8229   37.0450   35.5788 N   0  0  0  0  0  0  0  0  0  0  0  0
   16.1639   34.7593   33.1547 C   0  0  0  0  0  0  0  0  0  0  0  0
   15.6519   35.3489   35.4132 C   0  0  0  0  0  0  0  0  0  0  0  0
   16.3795   34.6308   34.5042 N   0  0  0  0  0  0  0  0  0  0  0  0
   15.9006   35.1931   36.8090 N   0  0  0  0  0  0  0  0  0  0  0  0
    9.0386   45.4862   33.7258 H   0  0  0  0  0  0  0  0  0  0  0  0
   11.1158   46.1738   34.5497 H   0  0  0  0  0  0  0  0  0  0  0  0
   10.8130   46.9782   33.1256 H   0  0  0  0  0  0  0  0  0  0  0  0
    9.5554   46.0769   31.3118 H   0  0  0  0  0  0  0  0  0  0  0  0
   10.6591   44.6777   31.2080 H   0  0  0  0  0  0  0  0  0  0  0  0
    7.0841   45.4468   32.3097 H   0  0  0  0  0  0  0  0  0  0  0  0
    9.7061   42.7823   30.1607 H   0  0  0  0  0  0  0  0  0  0  0  0
    5.1654   44.0282   31.7143 H   0  0  0  0  0  0  0  0  0  0  0  0
    7.8039   41.3686   29.5793 H   0  0  0  0  0  0  0  0  0  0  0  0
    5.8933   39.8566   30.0684 H   0  0  0  0  0  0  0  0  0  0  0  0
    4.2229   40.1938   29.4771 H   0  0  0  0  0  0  0  0  0  0  0  0
    5.6345   40.8050   28.5356 H   0  0  0  0  0  0  0  0  0  0  0  0
    9.8244   40.7084   31.7647 H   0  0  0  0  0  0  0  0  0  0  0  0
   11.3819   41.5482   31.4763 H   0  0  0  0  0  0  0  0  0  0  0  0
   11.7284   39.5302   30.3520 H   0  0  0  0  0  0  0  0  0  0  0  0
   10.1136   38.2707   32.6382 H   0  0  0  0  0  0  0  0  0  0  0  0
   13.6726   37.4637   31.2241 H   0  0  0  0  0  0  0  0  0  0  0  0
   10.0532   38.1121   29.7639 H   0  0  0  0  0  0  0  0  0  0  0  0
   11.2646   36.3130   32.5102 H   0  0  0  0  0  0  0  0  0  0  0  0
   12.1550   35.5036   30.6307 H   0  0  0  0  0  0  0  0  0  0  0  0
   12.3361   38.3584   34.7450 H   0  0  0  0  0  0  0  0  0  0  0  0
   16.7574   34.1788   32.4619 H   0  0  0  0  0  0  0  0  0  0  0  0
   16.6366   34.5314   37.1415 H   0  0  0  0  0  0  0  0  0  0  0  0
   15.3533   35.7353   37.5139 H   0  0  0  0  0  0  0  0  0  0  0  0
  1  2  2  0
  1  3  1  0
  3  4  1  0
  4  5  1  0
  6  1  1  0
  7  6  1  0
  6  8  1  0
  8  9  1  0
  9 10  2  0
 11  9  1  0
 10 12  1  0
 13 11  2  0
 12 14  2  0
 14 13  1  0
 14 15  1  0
 15 16  1  0
  4 17  2  0
  4 18  1  0
 19 18  1  0
 19 20  1  0
 20 21  1  0
 20 22  1  0
 21 23  1  0
 22 24  1  0
 22 25  1  0
 25 23  1  0
 23 26  1  0
 25 27  1  0
 28 26  1  0
 29 26  1  0
 30 28  2  0
 28 31  1  0
 32 29  2  0
 33 30  1  0
 31 34  2  0
 31 32  1  0
 35 33  2  0
 35 34  1  0
 34 36  1  0
  6 37  1  1
  7 38  1  0
  7 39  1  0
  8 40  1  0
  8 41  1  0
 10 42  1  0
 11 43  1  0
 12 44  1  0
 13 45  1  0
 16 46  1  0
 16 47  1  0
 16 48  1  0
 19 49  1  0
 19 50  1  0
 20 51  1  0
 22 52  1  0
 23 53  1  0
 24 54  1  0
 25 55  1  0
 27 56  1  0
 29 57  1  0
 33 58  1  0
 36 59  1  0
 36 60  1  0
M  CHG  1   5  -1
M  END
>  <EmbedRMS>  (137) 
0.08854394392499353

$$$$

     RDKit          3D

 60 63  0  0  0  0  0  0  0  0999 V2000
   10.2903   43.7658   33.7848 C   0  0  0  0  0  0  0  0  0  0  0  0
   11.4131   43.5736   34.3382 O   0  0  0  0  0  0  0  0  0  0  0  0
    9.3652   42.7301   33.6896 O   0  0  0  0  0  0  0  0  0  0  0  0
    9.8809   41.2332   34.2815 P   0  0  0  0  0  5  0  0  0  0  0  0
   10.3594   41.4730   35.8724 O   0  0  0  0  0  1  0  0  0  0  0  0
    9.9342   45.1396   33.3237 C   0  0  1  0  0  0  0  0  0  0  0  0
   11.0773   46.0465   33.4448 N   0  0  0  0  0  0  0  0  0  0  0  0
    9.3096   45.2009   31.9135 C   0  0  0  0  0  0  0  0  0  0  0  0
   10.1441   44.5781   30.8197 C   0  0  0  0  0  0  0  0  0  0  0  0
   11.2625   45.2495   30.3008 C   0  0  0  0  0  0  0  0  0  0  0  0
    9.7610   43.3523   30.2538 C   0  0  0  0  0  0  0  0  0  0  0  0
   12.0104   44.6837   29.2637 C   0  0  0  0  0  0  0  0  0  0  0  0
   10.5011   42.7929   29.2082 C   0  0  0  0  0  0  0  0  0  0  0  0
   11.6347   43.4445   28.7115 C   0  0  0  0  0  0  0  0  0  0  0  0
   12.3535   42.8335   27.6734 O   0  0  0  0  0  0  0  0  0  0  0  0
   13.5271   43.3786   27.0796 C   0  0  0  0  0  0  0  0  0  0  0  0
    8.8031   40.1909   34.2078 O   0  0  0  0  0  0  0  0  0  0  0  0
   11.2360   40.7779   33.3771 O   0  0  0  0  0  0  0  0  0  0  0  0
   10.9287   40.6875   32.0015 C   0  0  0  0  0  0  0  0  0  0  0  0
   11.5295   39.3865   31.4384 C   0  0  0  0  0  0  0  0  0  0  0  0
   12.7530   39.0867   32.0804 O   0  0  0  0  0  0  0  0  0  0  0  0
   10.6132   38.1906   31.6472 C   0  0  0  0  0  0  0  0  0  0  0  0
   12.9380   37.6804   32.0298 C   0  0  0  0  0  0  0  0  0  0  0  0
    9.6160   38.0866   30.6544 O   0  0  0  0  0  0  0  0  0  0  0  0
   11.5788   37.0136   31.7016 C   0  0  0  0  0  0  0  0  0  0  0  0
   13.4905   37.2156   33.3243 N   0  0  0  0  0  0  0  0  0  0  0  0
   11.6201   36.3255   30.4725 O   0  0  0  0  0  0  0  0  0  0  0  0
   14.4765   36.3260   33.5733 C   0  0  0  0  0  0  0  0  0  0  0  0
   13.1181   37.6302   34.5692 C   0  0  0  0  0  0  0  0  0  0  0  0
   15.2068   35.6131   32.6742 N   0  0  0  0  0  0  0  0  0  0  0  0
   14.6738   36.2268   34.9186 C   0  0  0  0  0  0  0  0  0  0  0  0
   13.8230   37.0449   35.5787 N   0  0  0  0  0  0  0  0  0  0  0  0
   16.1642   34.7590   33.1549 C   0  0  0  0  0  0  0  0  0  0  0  0
   15.6521   35.3488   35.4134 C   0  0  0  0  0  0  0  0  0  0  0  0
   16.3797   34.6307   34.5045 N   0  0  0  0  0  0  0  0  0  0  0  0
   15.9007   35.1931   36.8092 N   0  0  0  0  0  0  0  0  0  0  0  0
    9.1486   45.5055   34.0220 H   0  0  0  0  0  0  0  0  0  0  0  0
   11.3042   46.1803   34.4577 H   0  0  0  0  0  0  0  0  0  0  0  0
   11.9198   45.6326   32.9833 H   0  0  0  0  0  0  0  0  0  0  0  0
    9.1160   46.2646   31.6534 H   0  0  0  0  0  0  0  0  0  0  0  0
    8.3105   44.7126   31.9494 H   0  0  0  0  0  0  0  0  0  0  0  0
   11.5495   46.2186   30.6882 H   0  0  0  0  0  0  0  0  0  0  0  0
    8.8881   42.8269   30.6209 H   0  0  0  0  0  0  0  0  0  0  0  0
   12.8719   45.2219   28.8928 H   0  0  0  0  0  0  0  0  0  0  0  0
   10.1979   41.8416   28.7894 H   0  0  0  0  0  0  0  0  0  0  0  0
   14.3235   43.4947   27.8449 H   0  0  0  0  0  0  0  0  0  0  0  0
   13.8895   42.6870   26.2918 H   0  0  0  0  0  0  0  0  0  0  0  0
   13.2985   44.3602   26.6134 H   0  0  0  0  0  0  0  0  0  0  0  0
    9.8429   40.7355   31.7503 H   0  0  0  0  0  0  0  0  0  0  0  0
   11.4304   41.5393   31.4999 H   0  0  0  0  0  0  0  0  0  0  0  0
   11.7302   39.5311   30.3521 H   0  0  0  0  0  0  0  0  0  0  0  0
   10.1146   38.2735   32.6388 H   0  0  0  0  0  0  0  0  0  0  0  0
   13.6728   37.4592   31.2239 H   0  0  0  0  0  0  0  0  0  0  0  0
   10.0546   38.1143   29.7645 H   0  0  0  0  0  0  0  0  0  0  0  0
   11.2635   36.3135   32.5109 H   0  0  0  0  0  0  0  0  0  0  0  0
   12.1517   35.5024   30.6313 H   0  0  0  0  0  0  0  0  0  0  0  0
   12.3360   38.3579   34.7445 H   0  0  0  0  0  0  0  0  0  0  0  0
   16.7578   34.1785   32.4622 H   0  0  0  0  0  0  0  0  0  0  0  0
   15.3533   35.7353   37.5141 H   0  0  0  0  0  0  0  0  0  0  0  0
   16.6367   34.5314   37.1418 H   0  0  0  0  0  0  0  0  0  0  0  0
  1  2  2  0
  1  3  1  0
  3  4  1  0
  4  5  1  0
  6  1  1  0
  7  6  1  0
  6  8  1  0
  8  9  1  0
  9 10  2  0
 11  9  1  0
 10 12  1  0
 13 11  2  0
 12 14  2  0
 14 13  1  0
 14 15  1  0
 15 16  1  0
  4 17  2  0
  4 18  1  0
 19 18  1  0
 19 20  1  0
 20 21  1  0
 20 22  1  0
 21 23  1  0
 22 24  1  0
 22 25  1  0
 25 23  1  0
 23 26  1  0
 25 27  1  0
 28 26  1  0
 29 26  1  0
 30 28  2  0
 28 31  1  0
 32 29  2  0
 33 30  1  0
 31 34  2  0
 31 32  1  0
 35 33  2  0
 35 34  1  0
 34 36  1  0
  6 37  1  1
  7 38  1  0
  7 39  1  0
  8 40  1  0
  8 41  1  0
 10 42  1  0
 11 43  1  0
 12 44  1  0
 13 45  1  0
 16 46  1  0
 16 47  1  0
 16 48  1  0
 19 49  1  0
 19 50  1  0
 20 51  1  0
 22 52  1  0
 23 53  1  0
 24 54  1  0
 25 55  1  0
 27 56  1  0
 29 57  1  0
 33 58  1  0
 36 59  1  0
 36 60  1  0
M  CHG  1   5  -1
M  END
>  <EmbedRMS>  (138) 
0.09238252779380539

$$$$

     RDKit          3D

 60 63  0  0  0  0  0  0  0  0999 V2000
   10.2895   43.7708   33.7894 C   0  0  0  0  0  0  0  0  0  0  0  0
   11.4115   43.5886   34.3476 O   0  0  0  0  0  0  0  0  0  0  0  0
    9.3641   42.7335   33.7089 O   0  0  0  0  0  0  0  0  0  0  0  0
    9.8852   41.2351   34.2864 P   0  0  0  0  0  5  0  0  0  0  0  0
   10.3676   41.4684   35.8763 O   0  0  0  0  0  1  0  0  0  0  0  0
    9.9590   45.1132   33.2310 C   0  0  1  0  0  0  0  0  0  0  0  0
   11.0633   46.0340   33.5073 N   0  0  0  0  0  0  0  0  0  0  0  0
    9.6722   45.0598   31.7109 C   0  0  0  0  0  0  0  0  0  0  0  0
    8.4286   44.2724   31.3731 C   0  0  0  0  0  0  0  0  0  0  0  0
    8.5207   43.0829   30.6339 C   0  0  0  0  0  0  0  0  0  0  0  0
    7.1659   44.7232   31.7894 C   0  0  0  0  0  0  0  0  0  0  0  0
    7.3735   42.3396   30.3447 C   0  0  0  0  0  0  0  0  0  0  0  0
    6.0177   43.9810   31.4972 C   0  0  0  0  0  0  0  0  0  0  0  0
    6.1156   42.7769   30.7740 C   0  0  0  0  0  0  0  0  0  0  0  0
    4.9950   41.9932   30.4614 O   0  0  0  0  0  0  0  0  0  0  0  0
    3.6596   42.3149   30.8364 C   0  0  0  0  0  0  0  0  0  0  0  0
    8.8075   40.1923   34.2101 O   0  0  0  0  0  0  0  0  0  0  0  0
   11.2367   40.7912   33.3691 O   0  0  0  0  0  0  0  0  0  0  0  0
   10.9132   40.6862   31.9971 C   0  0  0  0  0  0  0  0  0  0  0  0
   11.5257   39.3870   31.4376 C   0  0  0  0  0  0  0  0  0  0  0  0
   12.7489   39.0894   32.0826 O   0  0  0  0  0  0  0  0  0  0  0  0
   10.6123   38.1888   31.6462 C   0  0  0  0  0  0  0  0  0  0  0  0
   12.9374   37.6828   32.0302 C   0  0  0  0  0  0  0  0  0  0  0  0
    9.6151   38.0839   30.6537 O   0  0  0  0  0  0  0  0  0  0  0  0
   11.5795   37.0135   31.7011 C   0  0  0  0  0  0  0  0  0  0  0  0
   13.4906   37.2169   33.3243 N   0  0  0  0  0  0  0  0  0  0  0  0
   11.6219   36.3255   30.4721 O   0  0  0  0  0  0  0  0  0  0  0  0
   14.4763   36.3266   33.5731 C   0  0  0  0  0  0  0  0  0  0  0  0
   13.1181   37.6308   34.5695 C   0  0  0  0  0  0  0  0  0  0  0  0
   15.2065   35.6137   32.6740 N   0  0  0  0  0  0  0  0  0  0  0  0
   14.6736   36.2269   34.9185 C   0  0  0  0  0  0  0  0  0  0  0  0
   13.8229   37.0450   35.5788 N   0  0  0  0  0  0  0  0  0  0  0  0
   16.1639   34.7593   33.1547 C   0  0  0  0  0  0  0  0  0  0  0  0
   15.6519   35.3489   35.4132 C   0  0  0  0  0  0  0  0  0  0  0  0
   16.3795   34.6308   34.5042 N   0  0  0  0  0  0  0  0  0  0  0  0
   15.9006   35.1931   36.8090 N   0  0  0  0  0  0  0  0  0  0  0  0
    9.0573   45.4859   33.7644 H   0  0  0  0  0  0  0  0  0  0  0  0
   10.7584   47.0044   33.2626 H   0  0  0  0  0  0  0  0  0  0  0  0
   11.8787   45.8017   32.8929 H   0  0  0  0  0  0  0  0  0  0  0  0
   10.5568   44.6387   31.1831 H   0  0  0  0  0  0  0  0  0  0  0  0
    9.5351   46.0952   31.3299 H   0  0  0  0  0  0  0  0  0  0  0  0
    9.4804   42.7278   30.2822 H   0  0  0  0  0  0  0  0  0  0  0  0
    7.0702   45.6483   32.3440 H   0  0  0  0  0  0  0  0  0  0  0  0
    7.4625   41.4183   29.7829 H   0  0  0  0  0  0  0  0  0  0  0  0
    5.0606   44.3513   31.8381 H   0  0  0  0  0  0  0  0  0  0  0  0
    2.9776   41.5240   30.4627 H   0  0  0  0  0  0  0  0  0  0  0  0
    3.3598   43.2848   30.3864 H   0  0  0  0  0  0  0  0  0  0  0  0
    3.5750   42.3640   31.9426 H   0  0  0  0  0  0  0  0  0  0  0  0
   11.3761   41.5495   31.4733 H   0  0  0  0  0  0  0  0  0  0  0  0
    9.8224   40.7062   31.7653 H   0  0  0  0  0  0  0  0  0  0  0  0
   11.7284   39.5300   30.3517 H   0  0  0  0  0  0  0  0  0  0  0  0
   10.1136   38.2705   32.6380 H   0  0  0  0  0  0  0  0  0  0  0  0
   13.6727   37.4642   31.2241 H   0  0  0  0  0  0  0  0  0  0  0  0
   10.0535   38.1108   29.7638 H   0  0  0  0  0  0  0  0  0  0  0  0
   11.2649   36.3130   32.5102 H   0  0  0  0  0  0  0  0  0  0  0  0
   12.1556   35.5037   30.6308 H   0  0  0  0  0  0  0  0  0  0  0  0
   12.3362   38.3585   34.7451 H   0  0  0  0  0  0  0  0  0  0  0  0
   16.7574   34.1788   32.4619 H   0  0  0  0  0  0  0  0  0  0  0  0
   15.3533   35.7353   37.5139 H   0  0  0  0  0  0  0  0  0  0  0  0
   16.6366   34.5314   37.1415 H   0  0  0  0  0  0  0  0  0  0  0  0
  1  2  2  0
  1  3  1  0
  3  4  1  0
  4  5  1  0
  6  1  1  0
  7  6  1  0
  6  8  1  0
  8  9  1  0
  9 10  2  0
 11  9  1  0
 10 12  1  0
 13 11  2  0
 12 14  2  0
 14 13  1  0
 14 15  1  0
 15 16  1  0
  4 17  2  0
  4 18  1  0
 19 18  1  0
 19 20  1  0
 20 21  1  0
 20 22  1  0
 21 23  1  0
 22 24  1  0
 22 25  1  0
 25 23  1  0
 23 26  1  0
 25 27  1  0
 28 26  1  0
 29 26  1  0
 30 28  2  0
 28 31  1  0
 32 29  2  0
 33 30  1  0
 31 34  2  0
 31 32  1  0
 35 33  2  0
 35 34  1  0
 34 36  1  0
  6 37  1  1
  7 38  1  0
  7 39  1  0
  8 40  1  0
  8 41  1  0
 10 42  1  0
 11 43  1  0
 12 44  1  0
 13 45  1  0
 16 46  1  0
 16 47  1  0
 16 48  1  0
 19 49  1  0
 19 50  1  0
 20 51  1  0
 22 52  1  0
 23 53  1  0
 24 54  1  0
 25 55  1  0
 27 56  1  0
 29 57  1  0
 33 58  1  0
 36 59  1  0
 36 60  1  0
M  CHG  1   5  -1
M  END
>  <EmbedRMS>  (139) 
0.08813098601508267

$$$$

     RDKit          3D

 60 63  0  0  0  0  0  0  0  0999 V2000
   10.2942   43.7719   33.7962 C   0  0  0  0  0  0  0  0  0  0  0  0
   11.4142   43.5897   34.3577 O   0  0  0  0  0  0  0  0  0  0  0  0
    9.3673   42.7357   33.7086 O   0  0  0  0  0  0  0  0  0  0  0  0
    9.8872   41.2359   34.2845 P   0  0  0  0  0  5  0  0  0  0  0  0
   10.3696   41.4673   35.8748 O   0  0  0  0  0  1  0  0  0  0  0  0
    9.9760   45.1032   33.2099 C   0  0  1  0  0  0  0  0  0  0  0  0
   11.0438   46.0545   33.5253 N   0  0  0  0  0  0  0  0  0  0  0  0
    9.7491   45.0010   31.6777 C   0  0  0  0  0  0  0  0  0  0  0  0
   10.9945   45.2174   30.8396 C   0  0  0  0  0  0  0  0  0  0  0  0
   12.1344   44.4157   31.0140 C   0  0  0  0  0  0  0  0  0  0  0  0
   11.0106   46.2136   29.8485 C   0  0  0  0  0  0  0  0  0  0  0  0
   13.2680   44.6112   30.2207 C   0  0  0  0  0  0  0  0  0  0  0  0
   12.1450   46.4091   29.0551 C   0  0  0  0  0  0  0  0  0  0  0  0
   13.2855   45.6053   29.2371 C   0  0  0  0  0  0  0  0  0  0  0  0
   14.4477   45.7615   28.4672 O   0  0  0  0  0  0  0  0  0  0  0  0
   14.6039   46.7301   27.4353 C   0  0  0  0  0  0  0  0  0  0  0  0
    8.8094   40.1931   34.2079 O   0  0  0  0  0  0  0  0  0  0  0  0
   11.2382   40.7957   33.3639 O   0  0  0  0  0  0  0  0  0  0  0  0
   10.9106   40.6822   31.9927 C   0  0  0  0  0  0  0  0  0  0  0  0
   11.5141   39.3760   31.4401 C   0  0  0  0  0  0  0  0  0  0  0  0
   12.7451   39.0854   32.0745 O   0  0  0  0  0  0  0  0  0  0  0  0
   10.6021   38.1850   31.6671 C   0  0  0  0  0  0  0  0  0  0  0  0
   12.9333   37.6793   32.0282 C   0  0  0  0  0  0  0  0  0  0  0  0
    9.6389   38.0740   30.6458 O   0  0  0  0  0  0  0  0  0  0  0  0
   11.5746   37.0131   31.7055 C   0  0  0  0  0  0  0  0  0  0  0  0
   13.4904   37.2177   33.3232 N   0  0  0  0  0  0  0  0  0  0  0  0
   11.6223   36.3366   30.4687 O   0  0  0  0  0  0  0  0  0  0  0  0
   14.4762   36.3273   33.5725 C   0  0  0  0  0  0  0  0  0  0  0  0
   13.1179   37.6316   34.5685 C   0  0  0  0  0  0  0  0  0  0  0  0
   15.2063   35.6139   32.6738 N   0  0  0  0  0  0  0  0  0  0  0  0
   14.6734   36.2277   34.9180 C   0  0  0  0  0  0  0  0  0  0  0  0
   13.8226   37.0458   35.5780 N   0  0  0  0  0  0  0  0  0  0  0  0
   16.1636   34.7594   33.1546 C   0  0  0  0  0  0  0  0  0  0  0  0
   15.6516   35.3494   35.4129 C   0  0  0  0  0  0  0  0  0  0  0  0
   16.3791   34.6311   34.5041 N   0  0  0  0  0  0  0  0  0  0  0  0
   15.9002   35.1935   36.8088 N   0  0  0  0  0  0  0  0  0  0  0  0
    9.0285   45.4509   33.6810 H   0  0  0  0  0  0  0  0  0  0  0  0
   10.7865   46.9816   33.1142 H   0  0  0  0  0  0  0  0  0  0  0  0
   11.0600   46.2024   34.5614 H   0  0  0  0  0  0  0  0  0  0  0  0
    8.9847   45.7612   31.4037 H   0  0  0  0  0  0  0  0  0  0  0  0
    9.3037   44.0188   31.4069 H   0  0  0  0  0  0  0  0  0  0  0  0
   12.1579   43.6492   31.7723 H   0  0  0  0  0  0  0  0  0  0  0  0
   10.1440   46.8425   29.6866 H   0  0  0  0  0  0  0  0  0  0  0  0
   14.1395   43.9869   30.3726 H   0  0  0  0  0  0  0  0  0  0  0  0
   12.1238   47.1859   28.3030 H   0  0  0  0  0  0  0  0  0  0  0  0
   14.4963   47.7535   27.8528 H   0  0  0  0  0  0  0  0  0  0  0  0
   13.8511   46.5618   26.6364 H   0  0  0  0  0  0  0  0  0  0  0  0
   15.6172   46.6307   26.9952 H   0  0  0  0  0  0  0  0  0  0  0  0
    9.8211   40.7258   31.7592 H   0  0  0  0  0  0  0  0  0  0  0  0
   11.3815   41.5283   31.4558 H   0  0  0  0  0  0  0  0  0  0  0  0
   11.6957   39.4992   30.3473 H   0  0  0  0  0  0  0  0  0  0  0  0
   10.1082   38.2578   32.6658 H   0  0  0  0  0  0  0  0  0  0  0  0
   13.6659   37.4554   31.2210 H   0  0  0  0  0  0  0  0  0  0  0  0
    8.8911   38.6787   30.8900 H   0  0  0  0  0  0  0  0  0  0  0  0
   11.2863   36.3026   32.5167 H   0  0  0  0  0  0  0  0  0  0  0  0
   10.8546   35.7071   30.4579 H   0  0  0  0  0  0  0  0  0  0  0  0
   12.3353   38.3587   34.7441 H   0  0  0  0  0  0  0  0  0  0  0  0
   16.7570   34.1788   32.4619 H   0  0  0  0  0  0  0  0  0  0  0  0
   15.3530   35.7358   37.5137 H   0  0  0  0  0  0  0  0  0  0  0  0
   16.6360   34.5316   37.1413 H   0  0  0  0  0  0  0  0  0  0  0  0
  1  2  2  0
  1  3  1  0
  3  4  1  0
  4  5  1  0
  6  1  1  0
  7  6  1  0
  6  8  1  0
  8  9  1  0
  9 10  2  0
 11  9  1  0
 10 12  1  0
 13 11  2  0
 12 14  2  0
 14 13  1  0
 14 15  1  0
 15 16  1  0
  4 17  2  0
  4 18  1  0
 19 18  1  0
 19 20  1  0
 20 21  1  0
 20 22  1  0
 21 23  1  0
 22 24  1  0
 22 25  1  0
 25 23  1  0
 23 26  1  0
 25 27  1  0
 28 26  1  0
 29 26  1  0
 30 28  2  0
 28 31  1  0
 32 29  2  0
 33 30  1  0
 31 34  2  0
 31 32  1  0
 35 33  2  0
 35 34  1  0
 34 36  1  0
  6 37  1  1
  7 38  1  0
  7 39  1  0
  8 40  1  0
  8 41  1  0
 10 42  1  0
 11 43  1  0
 12 44  1  0
 13 45  1  0
 16 46  1  0
 16 47  1  0
 16 48  1  0
 19 49  1  0
 19 50  1  0
 20 51  1  0
 22 52  1  0
 23 53  1  0
 24 54  1  0
 25 55  1  0
 27 56  1  0
 29 57  1  0
 33 58  1  0
 36 59  1  0
 36 60  1  0
M  CHG  1   5  -1
M  END
>  <EmbedRMS>  (140) 
0.09024306343840549

$$$$

     RDKit          3D

 60 63  0  0  0  0  0  0  0  0999 V2000
   10.3001   43.7681   33.7923 C   0  0  0  0  0  0  0  0  0  0  0  0
   11.4164   43.5823   34.3591 O   0  0  0  0  0  0  0  0  0  0  0  0
    9.3696   42.7350   33.7055 O   0  0  0  0  0  0  0  0  0  0  0  0
    9.8861   41.2352   34.2845 P   0  0  0  0  0  5  0  0  0  0  0  0
   10.3682   41.4674   35.8748 O   0  0  0  0  0  1  0  0  0  0  0  0
    9.9792   45.1074   33.2196 C   0  0  1  0  0  0  0  0  0  0  0  0
   11.0353   46.0791   33.5231 N   0  0  0  0  0  0  0  0  0  0  0  0
    9.6883   45.0383   31.6971 C   0  0  0  0  0  0  0  0  0  0  0  0
   10.8892   45.2701   30.8016 C   0  0  0  0  0  0  0  0  0  0  0  0
   10.8763   46.3138   29.8608 C   0  0  0  0  0  0  0  0  0  0  0  0
   12.0128   44.4312   30.8687 C   0  0  0  0  0  0  0  0  0  0  0  0
   11.9670   46.5172   29.0099 C   0  0  0  0  0  0  0  0  0  0  0  0
   13.1033   44.6349   30.0193 C   0  0  0  0  0  0  0  0  0  0  0  0
   13.0918   45.6748   29.0840 C   0  0  0  0  0  0  0  0  0  0  0  0
   14.2105   45.8372   28.2533 O   0  0  0  0  0  0  0  0  0  0  0  0
   14.3340   46.8506   27.2607 C   0  0  0  0  0  0  0  0  0  0  0  0
    8.8078   40.1930   34.2078 O   0  0  0  0  0  0  0  0  0  0  0  0
   11.2370   40.7940   33.3649 O   0  0  0  0  0  0  0  0  0  0  0  0
   10.9084   40.6798   31.9942 C   0  0  0  0  0  0  0  0  0  0  0  0
   11.5138   39.3764   31.4418 C   0  0  0  0  0  0  0  0  0  0  0  0
   12.7463   39.0876   32.0766 O   0  0  0  0  0  0  0  0  0  0  0  0
   10.6024   38.1841   31.6667 C   0  0  0  0  0  0  0  0  0  0  0  0
   12.9399   37.6824   32.0279 C   0  0  0  0  0  0  0  0  0  0  0  0
    9.6368   38.0735   30.6477 O   0  0  0  0  0  0  0  0  0  0  0  0
   11.5812   37.0170   31.6933 C   0  0  0  0  0  0  0  0  0  0  0  0
   13.4903   37.2174   33.3239 N   0  0  0  0  0  0  0  0  0  0  0  0
   11.6133   36.3175   30.4669 O   0  0  0  0  0  0  0  0  0  0  0  0
   14.4760   36.3269   33.5732 C   0  0  0  0  0  0  0  0  0  0  0  0
   13.1176   37.6315   34.5689 C   0  0  0  0  0  0  0  0  0  0  0  0
   15.2065   35.6140   32.6743 N   0  0  0  0  0  0  0  0  0  0  0  0
   14.6731   36.2273   34.9186 C   0  0  0  0  0  0  0  0  0  0  0  0
   13.8222   37.0457   35.5785 N   0  0  0  0  0  0  0  0  0  0  0  0
   16.1638   34.7596   33.1550 C   0  0  0  0  0  0  0  0  0  0  0  0
   15.6515   35.3492   35.4134 C   0  0  0  0  0  0  0  0  0  0  0  0
   16.3792   34.6311   34.5044 N   0  0  0  0  0  0  0  0  0  0  0  0
   15.9002   35.1934   36.8092 N   0  0  0  0  0  0  0  0  0  0  0  0
    9.0444   45.4463   33.7196 H   0  0  0  0  0  0  0  0  0  0  0  0
   11.0547   46.2450   34.5562 H   0  0  0  0  0  0  0  0  0  0  0  0
   11.9766   45.7171   33.2472 H   0  0  0  0  0  0  0  0  0  0  0  0
    8.9109   45.8012   31.4712 H   0  0  0  0  0  0  0  0  0  0  0  0
    9.2306   44.0610   31.4295 H   0  0  0  0  0  0  0  0  0  0  0  0
   10.0205   46.9725   29.7814 H   0  0  0  0  0  0  0  0  0  0  0  0
   12.0610   43.6394   31.5988 H   0  0  0  0  0  0  0  0  0  0  0  0
   11.9244   47.3302   28.2981 H   0  0  0  0  0  0  0  0  0  0  0  0
   13.9648   43.9831   30.0914 H   0  0  0  0  0  0  0  0  0  0  0  0
   14.2818   47.8549   27.7318 H   0  0  0  0  0  0  0  0  0  0  0  0
   15.3160   46.7456   26.7557 H   0  0  0  0  0  0  0  0  0  0  0  0
   13.5304   46.7417   26.5020 H   0  0  0  0  0  0  0  0  0  0  0  0
   11.3787   41.5235   31.4562 H   0  0  0  0  0  0  0  0  0  0  0  0
    9.8189   40.7223   31.7607 H   0  0  0  0  0  0  0  0  0  0  0  0
   11.6955   39.5023   30.3492 H   0  0  0  0  0  0  0  0  0  0  0  0
   10.1122   38.2514   32.6675 H   0  0  0  0  0  0  0  0  0  0  0  0
   13.6805   37.4636   31.2269 H   0  0  0  0  0  0  0  0  0  0  0  0
    8.8885   38.6761   30.8956 H   0  0  0  0  0  0  0  0  0  0  0  0
   11.2854   36.3011   32.4918 H   0  0  0  0  0  0  0  0  0  0  0  0
   11.8878   36.9579   29.7590 H   0  0  0  0  0  0  0  0  0  0  0  0
   12.3360   38.3598   34.7442 H   0  0  0  0  0  0  0  0  0  0  0  0
   16.7573   34.1792   32.4622 H   0  0  0  0  0  0  0  0  0  0  0  0
   16.6363   34.5317   37.1417 H   0  0  0  0  0  0  0  0  0  0  0  0
   15.3529   35.7356   37.5141 H   0  0  0  0  0  0  0  0  0  0  0  0
  1  2  2  0
  1  3  1  0
  3  4  1  0
  4  5  1  0
  6  1  1  0
  7  6  1  0
  6  8  1  0
  8  9  1  0
  9 10  2  0
 11  9  1  0
 10 12  1  0
 13 11  2  0
 12 14  2  0
 14 13  1  0
 14 15  1  0
 15 16  1  0
  4 17  2  0
  4 18  1  0
 19 18  1  0
 19 20  1  0
 20 21  1  0
 20 22  1  0
 21 23  1  0
 22 24  1  0
 22 25  1  0
 25 23  1  0
 23 26  1  0
 25 27  1  0
 28 26  1  0
 29 26  1  0
 30 28  2  0
 28 31  1  0
 32 29  2  0
 33 30  1  0
 31 34  2  0
 31 32  1  0
 35 33  2  0
 35 34  1  0
 34 36  1  0
  6 37  1  1
  7 38  1  0
  7 39  1  0
  8 40  1  0
  8 41  1  0
 10 42  1  0
 11 43  1  0
 12 44  1  0
 13 45  1  0
 16 46  1  0
 16 47  1  0
 16 48  1  0
 19 49  1  0
 19 50  1  0
 20 51  1  0
 22 52  1  0
 23 53  1  0
 24 54  1  0
 25 55  1  0
 27 56  1  0
 29 57  1  0
 33 58  1  0
 36 59  1  0
 36 60  1  0
M  CHG  1   5  -1
M  END
>  <EmbedRMS>  (141) 
0.09049073434150055

$$$$

     RDKit          3D

 60 63  0  0  0  0  0  0  0  0999 V2000
   10.2894   43.7709   33.7894 C   0  0  0  0  0  0  0  0  0  0  0  0
   11.4115   43.5887   34.3476 O   0  0  0  0  0  0  0  0  0  0  0  0
    9.3641   42.7335   33.7088 O   0  0  0  0  0  0  0  0  0  0  0  0
    9.8855   41.2349   34.2856 P   0  0  0  0  0  5  0  0  0  0  0  0
   10.3683   41.4681   35.8754 O   0  0  0  0  0  1  0  0  0  0  0  0
    9.9587   45.1134   33.2316 C   0  0  1  0  0  0  0  0  0  0  0  0
   11.0635   46.0339   33.5069 N   0  0  0  0  0  0  0  0  0  0  0  0
    9.6703   45.0603   31.7118 C   0  0  0  0  0  0  0  0  0  0  0  0
    8.4248   44.2753   31.3758 C   0  0  0  0  0  0  0  0  0  0  0  0
    7.1633   44.7295   31.7922 C   0  0  0  0  0  0  0  0  0  0  0  0
    8.5138   43.0842   30.6387 C   0  0  0  0  0  0  0  0  0  0  0  0
    6.0133   43.9893   31.5019 C   0  0  0  0  0  0  0  0  0  0  0  0
    7.3648   42.3429   30.3515 C   0  0  0  0  0  0  0  0  0  0  0  0
    6.1081   42.7838   30.7807 C   0  0  0  0  0  0  0  0  0  0  0  0
    4.9856   42.0019   30.4703 O   0  0  0  0  0  0  0  0  0  0  0  0
    3.6512   42.3272   30.8455 C   0  0  0  0  0  0  0  0  0  0  0  0
    8.8076   40.1923   34.2097 O   0  0  0  0  0  0  0  0  0  0  0  0
   11.2366   40.7917   33.3668 O   0  0  0  0  0  0  0  0  0  0  0  0
   10.9113   40.6823   31.9952 C   0  0  0  0  0  0  0  0  0  0  0  0
   11.5172   39.3771   31.4406 C   0  0  0  0  0  0  0  0  0  0  0  0
   12.7475   39.0870   32.0763 O   0  0  0  0  0  0  0  0  0  0  0  0
   10.6069   38.1846   31.6658 C   0  0  0  0  0  0  0  0  0  0  0  0
   12.9372   37.6812   32.0292 C   0  0  0  0  0  0  0  0  0  0  0  0
    9.6405   38.0884   30.6473 O   0  0  0  0  0  0  0  0  0  0  0  0
   11.5791   37.0132   31.7043 C   0  0  0  0  0  0  0  0  0  0  0  0
   13.4915   37.2181   33.3240 N   0  0  0  0  0  0  0  0  0  0  0  0
   11.6128   36.3390   30.4670 O   0  0  0  0  0  0  0  0  0  0  0  0
   14.4766   36.3271   33.5731 C   0  0  0  0  0  0  0  0  0  0  0  0
   13.1184   37.6316   34.5691 C   0  0  0  0  0  0  0  0  0  0  0  0
   15.2066   35.6139   32.6741 N   0  0  0  0  0  0  0  0  0  0  0  0
   14.6735   36.2273   34.9184 C   0  0  0  0  0  0  0  0  0  0  0  0
   13.8228   37.0455   35.5785 N   0  0  0  0  0  0  0  0  0  0  0  0
   16.1638   34.7593   33.1548 C   0  0  0  0  0  0  0  0  0  0  0  0
   15.6517   35.3490   35.4132 C   0  0  0  0  0  0  0  0  0  0  0  0
   16.3793   34.6308   34.5043 N   0  0  0  0  0  0  0  0  0  0  0  0
   15.9004   35.1932   36.8090 N   0  0  0  0  0  0  0  0  0  0  0  0
    9.0577   45.4862   33.7660 H   0  0  0  0  0  0  0  0  0  0  0  0
   10.7585   47.0044   33.2629 H   0  0  0  0  0  0  0  0  0  0  0  0
   11.8781   45.8016   32.8916 H   0  0  0  0  0  0  0  0  0  0  0  0
    9.5346   46.0959   31.3307 H   0  0  0  0  0  0  0  0  0  0  0  0
   10.5535   44.6375   31.1831 H   0  0  0  0  0  0  0  0  0  0  0  0
    7.0700   45.6557   32.3453 H   0  0  0  0  0  0  0  0  0  0  0  0
    9.4726   42.7264   30.2872 H   0  0  0  0  0  0  0  0  0  0  0  0
    5.0572   44.3623   31.8428 H   0  0  0  0  0  0  0  0  0  0  0  0
    7.4514   41.4205   29.7913 H   0  0  0  0  0  0  0  0  0  0  0  0
    2.9672   41.5371   30.4736 H   0  0  0  0  0  0  0  0  0  0  0  0
    3.3532   43.2970   30.3940 H   0  0  0  0  0  0  0  0  0  0  0  0
    3.5674   42.3784   31.9517 H   0  0  0  0  0  0  0  0  0  0  0  0
   11.3780   41.5407   31.4667 H   0  0  0  0  0  0  0  0  0  0  0  0
    9.8203   40.7066   31.7643 H   0  0  0  0  0  0  0  0  0  0  0  0
   11.7000   39.5029   30.3483 H   0  0  0  0  0  0  0  0  0  0  0  0
   10.1095   38.2738   32.6606 H   0  0  0  0  0  0  0  0  0  0  0  0
   13.6715   37.4597   31.2229 H   0  0  0  0  0  0  0  0  0  0  0  0
    9.0017   37.3856   30.9356 H   0  0  0  0  0  0  0  0  0  0  0  0
   11.2709   36.3044   32.5084 H   0  0  0  0  0  0  0  0  0  0  0  0
   12.1450   35.5139   30.6135 H   0  0  0  0  0  0  0  0  0  0  0  0
   12.3362   38.3592   34.7445 H   0  0  0  0  0  0  0  0  0  0  0  0
   16.7571   34.1787   32.4620 H   0  0  0  0  0  0  0  0  0  0  0  0
   15.3532   35.7355   37.5139 H   0  0  0  0  0  0  0  0  0  0  0  0
   16.6363   34.5313   37.1415 H   0  0  0  0  0  0  0  0  0  0  0  0
  1  2  2  0
  1  3  1  0
  3  4  1  0
  4  5  1  0
  6  1  1  0
  7  6  1  0
  6  8  1  0
  8  9  1  0
  9 10  2  0
 11  9  1  0
 10 12  1  0
 13 11  2  0
 12 14  2  0
 14 13  1  0
 14 15  1  0
 15 16  1  0
  4 17  2  0
  4 18  1  0
 19 18  1  0
 19 20  1  0
 20 21  1  0
 20 22  1  0
 21 23  1  0
 22 24  1  0
 22 25  1  0
 25 23  1  0
 23 26  1  0
 25 27  1  0
 28 26  1  0
 29 26  1  0
 30 28  2  0
 28 31  1  0
 32 29  2  0
 33 30  1  0
 31 34  2  0
 31 32  1  0
 35 33  2  0
 35 34  1  0
 34 36  1  0
  6 37  1  1
  7 38  1  0
  7 39  1  0
  8 40  1  0
  8 41  1  0
 10 42  1  0
 11 43  1  0
 12 44  1  0
 13 45  1  0
 16 46  1  0
 16 47  1  0
 16 48  1  0
 19 49  1  0
 19 50  1  0
 20 51  1  0
 22 52  1  0
 23 53  1  0
 24 54  1  0
 25 55  1  0
 27 56  1  0
 29 57  1  0
 33 58  1  0
 36 59  1  0
 36 60  1  0
M  CHG  1   5  -1
M  END
>  <EmbedRMS>  (142) 
0.08903225350174443

$$$$

     RDKit          3D

 60 63  0  0  0  0  0  0  0  0999 V2000
   10.2904   43.7683   33.8033 C   0  0  0  0  0  0  0  0  0  0  0  0
   11.4117   43.5808   34.3604 O   0  0  0  0  0  0  0  0  0  0  0  0
    9.3642   42.7329   33.7099 O   0  0  0  0  0  0  0  0  0  0  0  0
    9.8837   41.2335   34.2864 P   0  0  0  0  0  5  0  0  0  0  0  0
   10.3662   41.4658   35.8766 O   0  0  0  0  0  1  0  0  0  0  0  0
    9.9697   45.1049   33.2281 C   0  0  1  0  0  0  0  0  0  0  0  0
   11.0568   46.0522   33.4894 N   0  0  0  0  0  0  0  0  0  0  0  0
    9.7173   44.9853   31.7142 C   0  0  0  0  0  0  0  0  0  0  0  0
    9.2967   46.3057   31.1215 C   0  0  0  0  0  0  0  0  0  0  0  0
   10.2434   47.1490   30.5195 C   0  0  0  0  0  0  0  0  0  0  0  0
    7.9601   46.7241   31.2065 C   0  0  0  0  0  0  0  0  0  0  0  0
    9.8559   48.3854   29.9943 C   0  0  0  0  0  0  0  0  0  0  0  0
    7.5731   47.9601   30.6812 C   0  0  0  0  0  0  0  0  0  0  0  0
    8.5123   48.7997   30.0712 C   0  0  0  0  0  0  0  0  0  0  0  0
    8.0735   50.0298   29.5592 O   0  0  0  0  0  0  0  0  0  0  0  0
    8.9171   50.9792   28.9155 C   0  0  0  0  0  0  0  0  0  0  0  0
    8.8066   40.1904   34.2091 O   0  0  0  0  0  0  0  0  0  0  0  0
   11.2357   40.7922   33.3689 O   0  0  0  0  0  0  0  0  0  0  0  0
   10.9140   40.6907   31.9961 C   0  0  0  0  0  0  0  0  0  0  0  0
   11.5263   39.3905   31.4377 C   0  0  0  0  0  0  0  0  0  0  0  0
   12.7502   39.0923   32.0843 O   0  0  0  0  0  0  0  0  0  0  0  0
   10.6119   38.1919   31.6451 C   0  0  0  0  0  0  0  0  0  0  0  0
   12.9427   37.6859   32.0296 C   0  0  0  0  0  0  0  0  0  0  0  0
    9.6069   38.0860   30.6601 O   0  0  0  0  0  0  0  0  0  0  0  0
   11.5844   37.0190   31.6880 C   0  0  0  0  0  0  0  0  0  0  0  0
   13.4898   37.2166   33.3250 N   0  0  0  0  0  0  0  0  0  0  0  0
   11.6202   36.3066   30.4693 O   0  0  0  0  0  0  0  0  0  0  0  0
   14.4758   36.3265   33.5738 C   0  0  0  0  0  0  0  0  0  0  0  0
   13.1175   37.6309   34.5699 C   0  0  0  0  0  0  0  0  0  0  0  0
   15.2064   35.6140   32.6745 N   0  0  0  0  0  0  0  0  0  0  0  0
   14.6730   36.2268   34.9190 C   0  0  0  0  0  0  0  0  0  0  0  0
   13.8224   37.0450   35.5792 N   0  0  0  0  0  0  0  0  0  0  0  0
   16.1639   34.7596   33.1550 C   0  0  0  0  0  0  0  0  0  0  0  0
   15.6517   35.3489   35.4135 C   0  0  0  0  0  0  0  0  0  0  0  0
   16.3794   34.6310   34.5045 N   0  0  0  0  0  0  0  0  0  0  0  0
   15.9005   35.1931   36.8093 N   0  0  0  0  0  0  0  0  0  0  0  0
    9.0438   45.4765   33.7202 H   0  0  0  0  0  0  0  0  0  0  0  0
   11.1824   46.1619   34.5225 H   0  0  0  0  0  0  0  0  0  0  0  0
   11.9531   45.6973   33.0809 H   0  0  0  0  0  0  0  0  0  0  0  0
    8.9167   44.2361   31.5248 H   0  0  0  0  0  0  0  0  0  0  0  0
   10.6338   44.6106   31.2060 H   0  0  0  0  0  0  0  0  0  0  0  0
   11.2826   46.8500   30.4584 H   0  0  0  0  0  0  0  0  0  0  0  0
    7.2185   46.0931   31.6809 H   0  0  0  0  0  0  0  0  0  0  0  0
   10.6079   49.0115   29.5340 H   0  0  0  0  0  0  0  0  0  0  0  0
    6.5377   48.2690   30.7507 H   0  0  0  0  0  0  0  0  0  0  0  0
    9.3740   50.5307   28.0081 H   0  0  0  0  0  0  0  0  0  0  0  0
    8.3099   51.8561   28.6111 H   0  0  0  0  0  0  0  0  0  0  0  0
    9.7100   51.3209   29.6139 H   0  0  0  0  0  0  0  0  0  0  0  0
   11.3798   41.5540   31.4742 H   0  0  0  0  0  0  0  0  0  0  0  0
    9.8238   40.7197   31.7595 H   0  0  0  0  0  0  0  0  0  0  0  0
   11.7314   39.5346   30.3524 H   0  0  0  0  0  0  0  0  0  0  0  0
   10.1210   38.2684   32.6411 H   0  0  0  0  0  0  0  0  0  0  0  0
   13.6880   37.4717   31.2319 H   0  0  0  0  0  0  0  0  0  0  0  0
   10.0256   38.1756   29.7655 H   0  0  0  0  0  0  0  0  0  0  0  0
   11.2795   36.3128   32.4916 H   0  0  0  0  0  0  0  0  0  0  0  0
   11.9870   36.9103   29.7715 H   0  0  0  0  0  0  0  0  0  0  0  0
   12.3366   38.3597   34.7454 H   0  0  0  0  0  0  0  0  0  0  0  0
   16.7575   34.1795   32.4621 H   0  0  0  0  0  0  0  0  0  0  0  0
   15.3532   35.7351   37.5143 H   0  0  0  0  0  0  0  0  0  0  0  0
   16.6368   34.5315   37.1417 H   0  0  0  0  0  0  0  0  0  0  0  0
  1  2  2  0
  1  3  1  0
  3  4  1  0
  4  5  1  0
  6  1  1  0
  7  6  1  0
  6  8  1  0
  8  9  1  0
  9 10  2  0
 11  9  1  0
 10 12  1  0
 13 11  2  0
 12 14  2  0
 14 13  1  0
 14 15  1  0
 15 16  1  0
  4 17  2  0
  4 18  1  0
 19 18  1  0
 19 20  1  0
 20 21  1  0
 20 22  1  0
 21 23  1  0
 22 24  1  0
 22 25  1  0
 25 23  1  0
 23 26  1  0
 25 27  1  0
 28 26  1  0
 29 26  1  0
 30 28  2  0
 28 31  1  0
 32 29  2  0
 33 30  1  0
 31 34  2  0
 31 32  1  0
 35 33  2  0
 35 34  1  0
 34 36  1  0
  6 37  1  1
  7 38  1  0
  7 39  1  0
  8 40  1  0
  8 41  1  0
 10 42  1  0
 11 43  1  0
 12 44  1  0
 13 45  1  0
 16 46  1  0
 16 47  1  0
 16 48  1  0
 19 49  1  0
 19 50  1  0
 20 51  1  0
 22 52  1  0
 23 53  1  0
 24 54  1  0
 25 55  1  0
 27 56  1  0
 29 57  1  0
 33 58  1  0
 36 59  1  0
 36 60  1  0
M  CHG  1   5  -1
M  END
>  <EmbedRMS>  (143) 
0.08743120714276925

$$$$

     RDKit          3D

 60 63  0  0  0  0  0  0  0  0999 V2000
   10.3001   43.7682   33.7925 C   0  0  0  0  0  0  0  0  0  0  0  0
   11.4162   43.5824   34.3597 O   0  0  0  0  0  0  0  0  0  0  0  0
    9.3695   42.7352   33.7055 O   0  0  0  0  0  0  0  0  0  0  0  0
    9.8860   41.2352   34.2841 P   0  0  0  0  0  5  0  0  0  0  0  0
   10.3690   41.4673   35.8743 O   0  0  0  0  0  1  0  0  0  0  0  0
    9.9798   45.1072   33.2188 C   0  0  1  0  0  0  0  0  0  0  0  0
   11.0353   46.0792   33.5233 N   0  0  0  0  0  0  0  0  0  0  0  0
    9.6916   45.0373   31.6960 C   0  0  0  0  0  0  0  0  0  0  0  0
   10.8951   45.2612   30.8017 C   0  0  0  0  0  0  0  0  0  0  0  0
   10.8842   46.2965   29.8516 C   0  0  0  0  0  0  0  0  0  0  0  0
   12.0180   44.4219   30.8771 C   0  0  0  0  0  0  0  0  0  0  0  0
   11.9766   46.4901   29.0013 C   0  0  0  0  0  0  0  0  0  0  0  0
   13.1107   44.6159   30.0278 C   0  0  0  0  0  0  0  0  0  0  0  0
   13.0961   45.6551   29.0793 C   0  0  0  0  0  0  0  0  0  0  0  0
   14.1664   45.8903   28.2036 O   0  0  0  0  0  0  0  0  0  0  0  0
   15.3636   45.1200   28.1729 C   0  0  0  0  0  0  0  0  0  0  0  0
    8.8074   40.1933   34.2083 O   0  0  0  0  0  0  0  0  0  0  0  0
   11.2360   40.7935   33.3632 O   0  0  0  0  0  0  0  0  0  0  0  0
   10.9050   40.6778   31.9931 C   0  0  0  0  0  0  0  0  0  0  0  0
   11.5215   39.3812   31.4369 C   0  0  0  0  0  0  0  0  0  0  0  0
   12.7454   39.0864   32.0815 O   0  0  0  0  0  0  0  0  0  0  0  0
   10.6090   38.1850   31.6475 C   0  0  0  0  0  0  0  0  0  0  0  0
   12.9346   37.6798   32.0295 C   0  0  0  0  0  0  0  0  0  0  0  0
    9.6115   38.0824   30.6551 O   0  0  0  0  0  0  0  0  0  0  0  0
   11.5776   37.0098   31.7021 C   0  0  0  0  0  0  0  0  0  0  0  0
   13.4902   37.2162   33.3238 N   0  0  0  0  0  0  0  0  0  0  0  0
   11.6340   36.3213   30.4729 O   0  0  0  0  0  0  0  0  0  0  0  0
   14.4764   36.3264   33.5729 C   0  0  0  0  0  0  0  0  0  0  0  0
   13.1180   37.6305   34.5690 C   0  0  0  0  0  0  0  0  0  0  0  0
   15.2066   35.6134   32.6739 N   0  0  0  0  0  0  0  0  0  0  0  0
   14.6737   36.2271   34.9183 C   0  0  0  0  0  0  0  0  0  0  0  0
   13.8229   37.0452   35.5785 N   0  0  0  0  0  0  0  0  0  0  0  0
   16.1641   34.7592   33.1547 C   0  0  0  0  0  0  0  0  0  0  0  0
   15.6520   35.3490   35.4131 C   0  0  0  0  0  0  0  0  0  0  0  0
   16.3796   34.6308   34.5043 N   0  0  0  0  0  0  0  0  0  0  0  0
   15.9005   35.1932   36.8090 N   0  0  0  0  0  0  0  0  0  0  0  0
    9.0442   45.4463   33.7170 H   0  0  0  0  0  0  0  0  0  0  0  0
   11.9771   45.7175   33.2487 H   0  0  0  0  0  0  0  0  0  0  0  0
   11.0534   46.2455   34.5563 H   0  0  0  0  0  0  0  0  0  0  0  0
    8.9188   45.8042   31.4678 H   0  0  0  0  0  0  0  0  0  0  0  0
    9.2291   44.0620   31.4292 H   0  0  0  0  0  0  0  0  0  0  0  0
   10.0293   46.9554   29.7645 H   0  0  0  0  0  0  0  0  0  0  0  0
   12.0641   43.6363   31.6141 H   0  0  0  0  0  0  0  0  0  0  0  0
   11.9521   47.2931   28.2754 H   0  0  0  0  0  0  0  0  0  0  0  0
   13.9622   43.9555   30.1200 H   0  0  0  0  0  0  0  0  0  0  0  0
   16.0342   45.5233   27.3867 H   0  0  0  0  0  0  0  0  0  0  0  0
   15.1304   44.0612   27.9326 H   0  0  0  0  0  0  0  0  0  0  0  0
   15.8842   45.1844   29.1517 H   0  0  0  0  0  0  0  0  0  0  0  0
    9.8132   40.7013   31.7630 H   0  0  0  0  0  0  0  0  0  0  0  0
   11.3613   41.5287   31.4542 H   0  0  0  0  0  0  0  0  0  0  0  0
   11.7241   39.5219   30.3504 H   0  0  0  0  0  0  0  0  0  0  0  0
   10.1113   38.2654   32.6398 H   0  0  0  0  0  0  0  0  0  0  0  0
   13.6691   37.4601   31.2229 H   0  0  0  0  0  0  0  0  0  0  0  0
   10.0500   38.1043   29.7650 H   0  0  0  0  0  0  0  0  0  0  0  0
   11.2825   36.3079   32.5183 H   0  0  0  0  0  0  0  0  0  0  0  0
   10.8658   35.6924   30.4630 H   0  0  0  0  0  0  0  0  0  0  0  0
   12.3356   38.3578   34.7445 H   0  0  0  0  0  0  0  0  0  0  0  0
   16.7575   34.1786   32.4620 H   0  0  0  0  0  0  0  0  0  0  0  0
   15.3532   35.7355   37.5138 H   0  0  0  0  0  0  0  0  0  0  0  0
   16.6365   34.5315   37.1416 H   0  0  0  0  0  0  0  0  0  0  0  0
  1  2  2  0
  1  3  1  0
  3  4  1  0
  4  5  1  0
  6  1  1  0
  7  6  1  0
  6  8  1  0
  8  9  1  0
  9 10  2  0
 11  9  1  0
 10 12  1  0
 13 11  2  0
 12 14  2  0
 14 13  1  0
 14 15  1  0
 15 16  1  0
  4 17  2  0
  4 18  1  0
 19 18  1  0
 19 20  1  0
 20 21  1  0
 20 22  1  0
 21 23  1  0
 22 24  1  0
 22 25  1  0
 25 23  1  0
 23 26  1  0
 25 27  1  0
 28 26  1  0
 29 26  1  0
 30 28  2  0
 28 31  1  0
 32 29  2  0
 33 30  1  0
 31 34  2  0
 31 32  1  0
 35 33  2  0
 35 34  1  0
 34 36  1  0
  6 37  1  1
  7 38  1  0
  7 39  1  0
  8 40  1  0
  8 41  1  0
 10 42  1  0
 11 43  1  0
 12 44  1  0
 13 45  1  0
 16 46  1  0
 16 47  1  0
 16 48  1  0
 19 49  1  0
 19 50  1  0
 20 51  1  0
 22 52  1  0
 23 53  1  0
 24 54  1  0
 25 55  1  0
 27 56  1  0
 29 57  1  0
 33 58  1  0
 36 59  1  0
 36 60  1  0
M  CHG  1   5  -1
M  END
>  <EmbedRMS>  (144) 
0.0902945759926171

$$$$

     RDKit          3D

 60 63  0  0  0  0  0  0  0  0999 V2000
   10.2895   43.7707   33.7895 C   0  0  0  0  0  0  0  0  0  0  0  0
   11.4145   43.5857   34.3411 O   0  0  0  0  0  0  0  0  0  0  0  0
    9.3634   42.7338   33.7103 O   0  0  0  0  0  0  0  0  0  0  0  0
    9.8845   41.2351   34.2874 P   0  0  0  0  0  5  0  0  0  0  0  0
   10.3668   41.4684   35.8772 O   0  0  0  0  0  1  0  0  0  0  0  0
    9.9608   45.1136   33.2263 C   0  0  1  0  0  0  0  0  0  0  0  0
   11.0589   46.0382   33.5134 N   0  0  0  0  0  0  0  0  0  0  0  0
    9.7330   45.0496   31.6983 C   0  0  0  0  0  0  0  0  0  0  0  0
    8.5467   44.2002   31.3062 C   0  0  0  0  0  0  0  0  0  0  0  0
    7.2508   44.5490   31.7191 C   0  0  0  0  0  0  0  0  0  0  0  0
    8.7261   43.0566   30.5125 C   0  0  0  0  0  0  0  0  0  0  0  0
    6.1603   43.7437   31.3780 C   0  0  0  0  0  0  0  0  0  0  0  0
    7.6364   42.2495   30.1749 C   0  0  0  0  0  0  0  0  0  0  0  0
    6.3418   42.5864   30.6124 C   0  0  0  0  0  0  0  0  0  0  0  0
    5.2179   41.8043   30.3079 O   0  0  0  0  0  0  0  0  0  0  0  0
    5.2599   40.5977   29.5530 C   0  0  0  0  0  0  0  0  0  0  0  0
    8.8070   40.1922   34.2104 O   0  0  0  0  0  0  0  0  0  0  0  0
   11.2365   40.7906   33.3713 O   0  0  0  0  0  0  0  0  0  0  0  0
   10.9149   40.6878   31.9991 C   0  0  0  0  0  0  0  0  0  0  0  0
   11.5269   39.3897   31.4389 C   0  0  0  0  0  0  0  0  0  0  0  0
   12.7509   39.0914   32.0845 O   0  0  0  0  0  0  0  0  0  0  0  0
   10.6120   38.1913   31.6455 C   0  0  0  0  0  0  0  0  0  0  0  0
   12.9429   37.6851   32.0296 C   0  0  0  0  0  0  0  0  0  0  0  0
    9.6068   38.0864   30.6604 O   0  0  0  0  0  0  0  0  0  0  0  0
   11.5844   37.0185   31.6878 C   0  0  0  0  0  0  0  0  0  0  0  0
   13.4897   37.2160   33.3250 N   0  0  0  0  0  0  0  0  0  0  0  0
   11.6200   36.3067   30.4688 O   0  0  0  0  0  0  0  0  0  0  0  0
   14.4758   36.3262   33.5739 C   0  0  0  0  0  0  0  0  0  0  0  0
   13.1175   37.6306   34.5699 C   0  0  0  0  0  0  0  0  0  0  0  0
   15.2065   35.6138   32.6746 N   0  0  0  0  0  0  0  0  0  0  0  0
   14.6731   36.2267   34.9191 C   0  0  0  0  0  0  0  0  0  0  0  0
   13.8224   37.0449   35.5792 N   0  0  0  0  0  0  0  0  0  0  0  0
   16.1640   34.7595   33.1551 C   0  0  0  0  0  0  0  0  0  0  0  0
   15.6518   35.3489   35.4136 C   0  0  0  0  0  0  0  0  0  0  0  0
   16.3795   34.6309   34.5046 N   0  0  0  0  0  0  0  0  0  0  0  0
   15.9006   35.1931   36.8094 N   0  0  0  0  0  0  0  0  0  0  0  0
    9.0384   45.4861   33.7250 H   0  0  0  0  0  0  0  0  0  0  0  0
   10.8129   46.9782   33.1255 H   0  0  0  0  0  0  0  0  0  0  0  0
   11.1152   46.1740   34.5499 H   0  0  0  0  0  0  0  0  0  0  0  0
   10.6608   44.6792   31.2080 H   0  0  0  0  0  0  0  0  0  0  0  0
    9.5549   46.0766   31.3116 H   0  0  0  0  0  0  0  0  0  0  0  0
    7.0841   45.4408   32.3098 H   0  0  0  0  0  0  0  0  0  0  0  0
    9.7113   42.7842   30.1574 H   0  0  0  0  0  0  0  0  0  0  0  0
    5.1682   44.0190   31.7129 H   0  0  0  0  0  0  0  0  0  0  0  0
    7.8120   41.3672   29.5747 H   0  0  0  0  0  0  0  0  0  0  0  0
    5.6437   40.8000   28.5308 H   0  0  0  0  0  0  0  0  0  0  0  0
    5.9046   39.8507   30.0627 H   0  0  0  0  0  0  0  0  0  0  0  0
    4.2335   40.1849   29.4717 H   0  0  0  0  0  0  0  0  0  0  0  0
   11.3818   41.5505   31.4782 H   0  0  0  0  0  0  0  0  0  0  0  0
    9.8246   40.7095   31.7655 H   0  0  0  0  0  0  0  0  0  0  0  0
   11.7312   39.5354   30.3537 H   0  0  0  0  0  0  0  0  0  0  0  0
   10.1211   38.2671   32.6415 H   0  0  0  0  0  0  0  0  0  0  0  0
   13.6882   37.4708   31.2320 H   0  0  0  0  0  0  0  0  0  0  0  0
   10.0249   38.1798   29.7659 H   0  0  0  0  0  0  0  0  0  0  0  0
   11.2796   36.3119   32.4911 H   0  0  0  0  0  0  0  0  0  0  0  0
   11.9859   36.9111   29.7710 H   0  0  0  0  0  0  0  0  0  0  0  0
   12.3364   38.3593   34.7453 H   0  0  0  0  0  0  0  0  0  0  0  0
   16.7577   34.1794   32.4622 H   0  0  0  0  0  0  0  0  0  0  0  0
   16.6369   34.5316   37.1418 H   0  0  0  0  0  0  0  0  0  0  0  0
   15.3532   35.7351   37.5144 H   0  0  0  0  0  0  0  0  0  0  0  0
  1  2  2  0
  1  3  1  0
  3  4  1  0
  4  5  1  0
  6  1  1  0
  7  6  1  0
  6  8  1  0
  8  9  1  0
  9 10  2  0
 11  9  1  0
 10 12  1  0
 13 11  2  0
 12 14  2  0
 14 13  1  0
 14 15  1  0
 15 16  1  0
  4 17  2  0
  4 18  1  0
 19 18  1  0
 19 20  1  0
 20 21  1  0
 20 22  1  0
 21 23  1  0
 22 24  1  0
 22 25  1  0
 25 23  1  0
 23 26  1  0
 25 27  1  0
 28 26  1  0
 29 26  1  0
 30 28  2  0
 28 31  1  0
 32 29  2  0
 33 30  1  0
 31 34  2  0
 31 32  1  0
 35 33  2  0
 35 34  1  0
 34 36  1  0
  6 37  1  1
  7 38  1  0
  7 39  1  0
  8 40  1  0
  8 41  1  0
 10 42  1  0
 11 43  1  0
 12 44  1  0
 13 45  1  0
 16 46  1  0
 16 47  1  0
 16 48  1  0
 19 49  1  0
 19 50  1  0
 20 51  1  0
 22 52  1  0
 23 53  1  0
 24 54  1  0
 25 55  1  0
 27 56  1  0
 29 57  1  0
 33 58  1  0
 36 59  1  0
 36 60  1  0
M  CHG  1   5  -1
M  END
>  <EmbedRMS>  (145) 
0.0876417774525071

$$$$

     RDKit          3D

 60 63  0  0  0  0  0  0  0  0999 V2000
   10.2869   43.7693   33.7899 C   0  0  0  0  0  0  0  0  0  0  0  0
   11.4139   43.5805   34.3362 O   0  0  0  0  0  0  0  0  0  0  0  0
    9.3640   42.7313   33.6958 O   0  0  0  0  0  0  0  0  0  0  0  0
    9.8816   41.2342   34.2842 P   0  0  0  0  0  5  0  0  0  0  0  0
   10.3608   41.4726   35.8747 O   0  0  0  0  0  1  0  0  0  0  0  0
    9.9371   45.1297   33.2921 C   0  0  1  0  0  0  0  0  0  0  0  0
   11.0776   46.0312   33.4631 N   0  0  0  0  0  0  0  0  0  0  0  0
    9.4236   45.1270   31.8314 C   0  0  0  0  0  0  0  0  0  0  0  0
   10.2759   44.3523   30.8493 C   0  0  0  0  0  0  0  0  0  0  0  0
    9.7050   43.3105   30.0984 C   0  0  0  0  0  0  0  0  0  0  0  0
   11.6117   44.7125   30.6066 C   0  0  0  0  0  0  0  0  0  0  0  0
   10.4632   42.6240   29.1459 C   0  0  0  0  0  0  0  0  0  0  0  0
   12.3744   44.0143   29.6651 C   0  0  0  0  0  0  0  0  0  0  0  0
   11.8037   42.9588   28.9291 C   0  0  0  0  0  0  0  0  0  0  0  0
   12.5292   42.2231   27.9807 O   0  0  0  0  0  0  0  0  0  0  0  0
   13.9038   42.4372   27.6781 C   0  0  0  0  0  0  0  0  0  0  0  0
    8.8042   40.1915   34.2093 O   0  0  0  0  0  0  0  0  0  0  0  0
   11.2360   40.7802   33.3786 O   0  0  0  0  0  0  0  0  0  0  0  0
   10.9279   40.6912   32.0034 C   0  0  0  0  0  0  0  0  0  0  0  0
   11.5299   39.3910   31.4394 C   0  0  0  0  0  0  0  0  0  0  0  0
   12.7543   39.0901   32.0824 O   0  0  0  0  0  0  0  0  0  0  0  0
   10.6128   38.1940   31.6459 C   0  0  0  0  0  0  0  0  0  0  0  0
   12.9433   37.6839   32.0291 C   0  0  0  0  0  0  0  0  0  0  0  0
    9.6080   38.0893   30.6603 O   0  0  0  0  0  0  0  0  0  0  0  0
   11.5837   37.0195   31.6881 C   0  0  0  0  0  0  0  0  0  0  0  0
   13.4897   37.2154   33.3248 N   0  0  0  0  0  0  0  0  0  0  0  0
   11.6185   36.3073   30.4693 O   0  0  0  0  0  0  0  0  0  0  0  0
   14.4759   36.3259   33.5739 C   0  0  0  0  0  0  0  0  0  0  0  0
   13.1175   37.6304   34.5696 C   0  0  0  0  0  0  0  0  0  0  0  0
   15.2066   35.6135   32.6747 N   0  0  0  0  0  0  0  0  0  0  0  0
   14.6732   36.2266   34.9191 C   0  0  0  0  0  0  0  0  0  0  0  0
   13.8224   37.0450   35.5791 N   0  0  0  0  0  0  0  0  0  0  0  0
   16.1642   34.7594   33.1552 C   0  0  0  0  0  0  0  0  0  0  0  0
   15.6518   35.3489   35.4137 C   0  0  0  0  0  0  0  0  0  0  0  0
   16.3797   34.6309   34.5047 N   0  0  0  0  0  0  0  0  0  0  0  0
   15.9006   35.1931   36.8095 N   0  0  0  0  0  0  0  0  0  0  0  0
    9.1042   45.5038   33.9300 H   0  0  0  0  0  0  0  0  0  0  0  0
   11.2573   46.1521   34.4873 H   0  0  0  0  0  0  0  0  0  0  0  0
   10.8077   46.9804   33.1164 H   0  0  0  0  0  0  0  0  0  0  0  0
    8.3904   44.7143   31.8384 H   0  0  0  0  0  0  0  0  0  0  0  0
    9.3265   46.1724   31.4672 H   0  0  0  0  0  0  0  0  0  0  0  0
    8.6715   43.0246   30.2493 H   0  0  0  0  0  0  0  0  0  0  0  0
   12.0659   45.5389   31.1349 H   0  0  0  0  0  0  0  0  0  0  0  0
   10.0107   41.8167   28.5841 H   0  0  0  0  0  0  0  0  0  0  0  0
   13.4035   44.3088   29.5112 H   0  0  0  0  0  0  0  0  0  0  0  0
   14.2218   41.7105   26.9028 H   0  0  0  0  0  0  0  0  0  0  0  0
   14.0526   43.4649   27.2846 H   0  0  0  0  0  0  0  0  0  0  0  0
   14.5231   42.2819   28.5868 H   0  0  0  0  0  0  0  0  0  0  0  0
    9.8422   40.7425   31.7512 H   0  0  0  0  0  0  0  0  0  0  0  0
   11.4285   41.5445   31.5045 H   0  0  0  0  0  0  0  0  0  0  0  0
   11.7327   39.5387   30.3539 H   0  0  0  0  0  0  0  0  0  0  0  0
   10.1216   38.2710   32.6416 H   0  0  0  0  0  0  0  0  0  0  0  0
   13.6880   37.4674   31.2315 H   0  0  0  0  0  0  0  0  0  0  0  0
   10.0264   38.1844   29.7661 H   0  0  0  0  0  0  0  0  0  0  0  0
   11.2781   36.3136   32.4917 H   0  0  0  0  0  0  0  0  0  0  0  0
   11.9840   36.9115   29.7711 H   0  0  0  0  0  0  0  0  0  0  0  0
   12.3364   38.3592   34.7448 H   0  0  0  0  0  0  0  0  0  0  0  0
   16.7579   34.1793   32.4624 H   0  0  0  0  0  0  0  0  0  0  0  0
   16.6368   34.5316   37.1420 H   0  0  0  0  0  0  0  0  0  0  0  0
   15.3532   35.7352   37.5144 H   0  0  0  0  0  0  0  0  0  0  0  0
  1  2  2  0
  1  3  1  0
  3  4  1  0
  4  5  1  0
  6  1  1  0
  7  6  1  0
  6  8  1  0
  8  9  1  0
  9 10  2  0
 11  9  1  0
 10 12  1  0
 13 11  2  0
 12 14  2  0
 14 13  1  0
 14 15  1  0
 15 16  1  0
  4 17  2  0
  4 18  1  0
 19 18  1  0
 19 20  1  0
 20 21  1  0
 20 22  1  0
 21 23  1  0
 22 24  1  0
 22 25  1  0
 25 23  1  0
 23 26  1  0
 25 27  1  0
 28 26  1  0
 29 26  1  0
 30 28  2  0
 28 31  1  0
 32 29  2  0
 33 30  1  0
 31 34  2  0
 31 32  1  0
 35 33  2  0
 35 34  1  0
 34 36  1  0
  6 37  1  1
  7 38  1  0
  7 39  1  0
  8 40  1  0
  8 41  1  0
 10 42  1  0
 11 43  1  0
 12 44  1  0
 13 45  1  0
 16 46  1  0
 16 47  1  0
 16 48  1  0
 19 49  1  0
 19 50  1  0
 20 51  1  0
 22 52  1  0
 23 53  1  0
 24 54  1  0
 25 55  1  0
 27 56  1  0
 29 57  1  0
 33 58  1  0
 36 59  1  0
 36 60  1  0
M  CHG  1   5  -1
M  END
>  <EmbedRMS>  (146) 
0.0894109467874857

$$$$

     RDKit          3D

 60 63  0  0  0  0  0  0  0  0999 V2000
   10.2901   43.7705   33.7889 C   0  0  0  0  0  0  0  0  0  0  0  0
   11.4149   43.5859   34.3409 O   0  0  0  0  0  0  0  0  0  0  0  0
    9.3642   42.7333   33.7101 O   0  0  0  0  0  0  0  0  0  0  0  0
    9.8856   41.2346   34.2868 P   0  0  0  0  0  5  0  0  0  0  0  0
   10.3670   41.4681   35.8769 O   0  0  0  0  0  1  0  0  0  0  0  0
    9.9613   45.1131   33.2247 C   0  0  1  0  0  0  0  0  0  0  0  0
   11.0575   46.0388   33.5148 N   0  0  0  0  0  0  0  0  0  0  0  0
    9.7379   45.0503   31.6957 C   0  0  0  0  0  0  0  0  0  0  0  0
    8.5697   44.1795   31.2957 C   0  0  0  0  0  0  0  0  0  0  0  0
    8.7737   43.0490   30.4894 C   0  0  0  0  0  0  0  0  0  0  0  0
    7.2671   44.4933   31.7156 C   0  0  0  0  0  0  0  0  0  0  0  0
    7.7031   42.2178   30.1494 C   0  0  0  0  0  0  0  0  0  0  0  0
    6.1955   43.6641   31.3717 C   0  0  0  0  0  0  0  0  0  0  0  0
    6.4028   42.5175   30.5964 C   0  0  0  0  0  0  0  0  0  0  0  0
    5.2982   41.7080   30.2927 O   0  0  0  0  0  0  0  0  0  0  0  0
    5.3691   40.5047   29.5346 C   0  0  0  0  0  0  0  0  0  0  0  0
    8.8079   40.1920   34.2096 O   0  0  0  0  0  0  0  0  0  0  0  0
   11.2385   40.7900   33.3713 O   0  0  0  0  0  0  0  0  0  0  0  0
   10.9191   40.6874   31.9984 C   0  0  0  0  0  0  0  0  0  0  0  0
   11.5172   39.3800   31.4412 C   0  0  0  0  0  0  0  0  0  0  0  0
   12.7480   39.0858   32.0739 O   0  0  0  0  0  0  0  0  0  0  0  0
   10.6028   38.1889   31.6664 C   0  0  0  0  0  0  0  0  0  0  0  0
   12.9334   37.6794   32.0281 C   0  0  0  0  0  0  0  0  0  0  0  0
    9.6396   38.0785   30.6449 O   0  0  0  0  0  0  0  0  0  0  0  0
   11.5736   37.0153   31.7055 C   0  0  0  0  0  0  0  0  0  0  0  0
   13.4901   37.2174   33.3231 N   0  0  0  0  0  0  0  0  0  0  0  0
   11.6209   36.3376   30.4693 O   0  0  0  0  0  0  0  0  0  0  0  0
   14.4761   36.3272   33.5725 C   0  0  0  0  0  0  0  0  0  0  0  0
   13.1177   37.6314   34.5684 C   0  0  0  0  0  0  0  0  0  0  0  0
   15.2063   35.6138   32.6737 N   0  0  0  0  0  0  0  0  0  0  0  0
   14.6734   36.2277   34.9180 C   0  0  0  0  0  0  0  0  0  0  0  0
   13.8225   37.0458   35.5780 N   0  0  0  0  0  0  0  0  0  0  0  0
   16.1637   34.7594   33.1546 C   0  0  0  0  0  0  0  0  0  0  0  0
   15.6516   35.3494   35.4129 C   0  0  0  0  0  0  0  0  0  0  0  0
   16.3791   34.6311   34.5041 N   0  0  0  0  0  0  0  0  0  0  0  0
   15.9002   35.1935   36.8088 N   0  0  0  0  0  0  0  0  0  0  0  0
    9.0368   45.4842   33.7204 H   0  0  0  0  0  0  0  0  0  0  0  0
   11.1101   46.1753   34.5514 H   0  0  0  0  0  0  0  0  0  0  0  0
   10.8120   46.9783   33.1254 H   0  0  0  0  0  0  0  0  0  0  0  0
    9.5418   46.0754   31.3128 H   0  0  0  0  0  0  0  0  0  0  0  0
   10.6741   44.6992   31.2071 H   0  0  0  0  0  0  0  0  0  0  0  0
    9.7641   42.8034   30.1289 H   0  0  0  0  0  0  0  0  0  0  0  0
    7.0808   45.3750   32.3154 H   0  0  0  0  0  0  0  0  0  0  0  0
    7.8982   41.3450   29.5413 H   0  0  0  0  0  0  0  0  0  0  0  0
    5.1984   43.9113   31.7134 H   0  0  0  0  0  0  0  0  0  0  0  0
    5.7423   40.7197   28.5111 H   0  0  0  0  0  0  0  0  0  0  0  0
    6.0364   39.7742   30.0393 H   0  0  0  0  0  0  0  0  0  0  0  0
    4.3539   40.0645   29.4573 H   0  0  0  0  0  0  0  0  0  0  0  0
   11.3999   41.5418   31.4767 H   0  0  0  0  0  0  0  0  0  0  0  0
    9.8311   40.7288   31.7628 H   0  0  0  0  0  0  0  0  0  0  0  0
   11.6976   39.5061   30.3487 H   0  0  0  0  0  0  0  0  0  0  0  0
   10.1075   38.2623   32.6642 H   0  0  0  0  0  0  0  0  0  0  0  0
   13.6654   37.4539   31.2208 H   0  0  0  0  0  0  0  0  0  0  0  0
    8.9016   38.6997   30.8780 H   0  0  0  0  0  0  0  0  0  0  0  0
   11.2842   36.3058   32.5172 H   0  0  0  0  0  0  0  0  0  0  0  0
   10.8516   35.7102   30.4583 H   0  0  0  0  0  0  0  0  0  0  0  0
   12.3352   38.3586   34.7440 H   0  0  0  0  0  0  0  0  0  0  0  0
   16.7571   34.1788   32.4619 H   0  0  0  0  0  0  0  0  0  0  0  0
   15.3529   35.7359   37.5136 H   0  0  0  0  0  0  0  0  0  0  0  0
   16.6360   34.5317   37.1414 H   0  0  0  0  0  0  0  0  0  0  0  0
  1  2  2  0
  1  3  1  0
  3  4  1  0
  4  5  1  0
  6  1  1  0
  7  6  1  0
  6  8  1  0
  8  9  1  0
  9 10  2  0
 11  9  1  0
 10 12  1  0
 13 11  2  0
 12 14  2  0
 14 13  1  0
 14 15  1  0
 15 16  1  0
  4 17  2  0
  4 18  1  0
 19 18  1  0
 19 20  1  0
 20 21  1  0
 20 22  1  0
 21 23  1  0
 22 24  1  0
 22 25  1  0
 25 23  1  0
 23 26  1  0
 25 27  1  0
 28 26  1  0
 29 26  1  0
 30 28  2  0
 28 31  1  0
 32 29  2  0
 33 30  1  0
 31 34  2  0
 31 32  1  0
 35 33  2  0
 35 34  1  0
 34 36  1  0
  6 37  1  1
  7 38  1  0
  7 39  1  0
  8 40  1  0
  8 41  1  0
 10 42  1  0
 11 43  1  0
 12 44  1  0
 13 45  1  0
 16 46  1  0
 16 47  1  0
 16 48  1  0
 19 49  1  0
 19 50  1  0
 20 51  1  0
 22 52  1  0
 23 53  1  0
 24 54  1  0
 25 55  1  0
 27 56  1  0
 29 57  1  0
 33 58  1  0
 36 59  1  0
 36 60  1  0
M  CHG  1   5  -1
M  END
>  <EmbedRMS>  (147) 
0.09015362425175073

$$$$

     RDKit          3D

 60 63  0  0  0  0  0  0  0  0999 V2000
   10.2877   43.7723   33.7998 C   0  0  0  0  0  0  0  0  0  0  0  0
   11.4101   43.5905   34.3571 O   0  0  0  0  0  0  0  0  0  0  0  0
    9.3643   42.7337   33.7090 O   0  0  0  0  0  0  0  0  0  0  0  0
    9.8858   41.2347   34.2856 P   0  0  0  0  0  5  0  0  0  0  0  0
   10.3676   41.4673   35.8758 O   0  0  0  0  0  1  0  0  0  0  0  0
    9.9623   45.1042   33.2247 C   0  0  1  0  0  0  0  0  0  0  0  0
   11.0638   46.0309   33.4993 N   0  0  0  0  0  0  0  0  0  0  0  0
    9.6880   44.9760   31.7098 C   0  0  0  0  0  0  0  0  0  0  0  0
    9.2415   46.2844   31.1095 C   0  0  0  0  0  0  0  0  0  0  0  0
   10.1522   47.0986   30.4187 C   0  0  0  0  0  0  0  0  0  0  0  0
    7.9168   46.7186   31.2699 C   0  0  0  0  0  0  0  0  0  0  0  0
    9.7397   48.3230   29.8857 C   0  0  0  0  0  0  0  0  0  0  0  0
    7.5045   47.9433   30.7363 C   0  0  0  0  0  0  0  0  0  0  0  0
    8.4174   48.7562   30.0373 C   0  0  0  0  0  0  0  0  0  0  0  0
    8.0533   49.9927   29.4838 O   0  0  0  0  0  0  0  0  0  0  0  0
    6.7477   50.5553   29.5626 C   0  0  0  0  0  0  0  0  0  0  0  0
    8.8087   40.1914   34.2086 O   0  0  0  0  0  0  0  0  0  0  0  0
   11.2380   40.7931   33.3680 O   0  0  0  0  0  0  0  0  0  0  0  0
   10.9174   40.6899   31.9947 C   0  0  0  0  0  0  0  0  0  0  0  0
   11.5174   39.3807   31.4401 C   0  0  0  0  0  0  0  0  0  0  0  0
   12.7478   39.0882   32.0755 O   0  0  0  0  0  0  0  0  0  0  0  0
   10.6051   38.1879   31.6656 C   0  0  0  0  0  0  0  0  0  0  0  0
   12.9359   37.6822   32.0289 C   0  0  0  0  0  0  0  0  0  0  0  0
    9.6422   38.0740   30.6444 O   0  0  0  0  0  0  0  0  0  0  0  0
   11.5764   37.0163   31.7047 C   0  0  0  0  0  0  0  0  0  0  0  0
   13.4908   37.2185   33.3237 N   0  0  0  0  0  0  0  0  0  0  0  0
   11.6102   36.3402   30.4681 O   0  0  0  0  0  0  0  0  0  0  0  0
   14.4761   36.3275   33.5727 C   0  0  0  0  0  0  0  0  0  0  0  0
   13.1181   37.6319   34.5690 C   0  0  0  0  0  0  0  0  0  0  0  0
   15.2063   35.6142   32.6738 N   0  0  0  0  0  0  0  0  0  0  0  0
   14.6733   36.2276   34.9182 C   0  0  0  0  0  0  0  0  0  0  0  0
   13.8226   37.0457   35.5783 N   0  0  0  0  0  0  0  0  0  0  0  0
   16.1635   34.7595   33.1545 C   0  0  0  0  0  0  0  0  0  0  0  0
   15.6515   35.3492   35.4130 C   0  0  0  0  0  0  0  0  0  0  0  0
   16.3790   34.6310   34.5040 N   0  0  0  0  0  0  0  0  0  0  0  0
   15.9002   35.1933   36.8088 N   0  0  0  0  0  0  0  0  0  0  0  0
    9.0442   45.4723   33.7342 H   0  0  0  0  0  0  0  0  0  0  0  0
   11.8658   45.8305   32.8571 H   0  0  0  0  0  0  0  0  0  0  0  0
   10.7421   47.0071   33.3069 H   0  0  0  0  0  0  0  0  0  0  0  0
    8.8904   44.2196   31.5377 H   0  0  0  0  0  0  0  0  0  0  0  0
   10.5976   44.6014   31.1892 H   0  0  0  0  0  0  0  0  0  0  0  0
   11.1823   46.7878   30.2959 H   0  0  0  0  0  0  0  0  0  0  0  0
    7.2036   46.1081   31.8102 H   0  0  0  0  0  0  0  0  0  0  0  0
   10.4522   48.9407   29.3537 H   0  0  0  0  0  0  0  0  0  0  0  0
    6.4766   48.2492   30.8748 H   0  0  0  0  0  0  0  0  0  0  0  0
    6.4647   50.7161   30.6244 H   0  0  0  0  0  0  0  0  0  0  0  0
    6.7428   51.5345   29.0415 H   0  0  0  0  0  0  0  0  0  0  0  0
    6.0128   49.8855   29.0681 H   0  0  0  0  0  0  0  0  0  0  0  0
    9.8291   40.7380   31.7563 H   0  0  0  0  0  0  0  0  0  0  0  0
   11.3961   41.5450   31.4711 H   0  0  0  0  0  0  0  0  0  0  0  0
   11.6998   39.5053   30.3477 H   0  0  0  0  0  0  0  0  0  0  0  0
   10.1099   38.2622   32.6635 H   0  0  0  0  0  0  0  0  0  0  0  0
   13.6694   37.4596   31.2223 H   0  0  0  0  0  0  0  0  0  0  0  0
    8.9002   38.6890   30.8807 H   0  0  0  0  0  0  0  0  0  0  0  0
   11.2689   36.3074   32.5092 H   0  0  0  0  0  0  0  0  0  0  0  0
   12.1428   35.5155   30.6155 H   0  0  0  0  0  0  0  0  0  0  0  0
   12.3359   38.3594   34.7446 H   0  0  0  0  0  0  0  0  0  0  0  0
   16.7568   34.1790   32.4617 H   0  0  0  0  0  0  0  0  0  0  0  0
   15.3530   35.7356   37.5137 H   0  0  0  0  0  0  0  0  0  0  0  0
   16.6361   34.5315   37.1412 H   0  0  0  0  0  0  0  0  0  0  0  0
  1  2  2  0
  1  3  1  0
  3  4  1  0
  4  5  1  0
  6  1  1  0
  7  6  1  0
  6  8  1  0
  8  9  1  0
  9 10  2  0
 11  9  1  0
 10 12  1  0
 13 11  2  0
 12 14  2  0
 14 13  1  0
 14 15  1  0
 15 16  1  0
  4 17  2  0
  4 18  1  0
 19 18  1  0
 19 20  1  0
 20 21  1  0
 20 22  1  0
 21 23  1  0
 22 24  1  0
 22 25  1  0
 25 23  1  0
 23 26  1  0
 25 27  1  0
 28 26  1  0
 29 26  1  0
 30 28  2  0
 28 31  1  0
 32 29  2  0
 33 30  1  0
 31 34  2  0
 31 32  1  0
 35 33  2  0
 35 34  1  0
 34 36  1  0
  6 37  1  1
  7 38  1  0
  7 39  1  0
  8 40  1  0
  8 41  1  0
 10 42  1  0
 11 43  1  0
 12 44  1  0
 13 45  1  0
 16 46  1  0
 16 47  1  0
 16 48  1  0
 19 49  1  0
 19 50  1  0
 20 51  1  0
 22 52  1  0
 23 53  1  0
 24 54  1  0
 25 55  1  0
 27 56  1  0
 29 57  1  0
 33 58  1  0
 36 59  1  0
 36 60  1  0
M  CHG  1   5  -1
M  END
>  <EmbedRMS>  (148) 
0.08894157952390404

$$$$

     RDKit          3D

 60 63  0  0  0  0  0  0  0  0999 V2000
   10.3000   43.7682   33.7923 C   0  0  0  0  0  0  0  0  0  0  0  0
   11.4162   43.5823   34.3593 O   0  0  0  0  0  0  0  0  0  0  0  0
    9.3695   42.7351   33.7053 O   0  0  0  0  0  0  0  0  0  0  0  0
    9.8864   41.2350   34.2832 P   0  0  0  0  0  5  0  0  0  0  0  0
   10.3697   41.4669   35.8733 O   0  0  0  0  0  1  0  0  0  0  0  0
    9.9795   45.1073   33.2192 C   0  0  1  0  0  0  0  0  0  0  0  0
   11.0353   46.0791   33.5233 N   0  0  0  0  0  0  0  0  0  0  0  0
    9.6905   45.0377   31.6964 C   0  0  0  0  0  0  0  0  0  0  0  0
   10.8933   45.2655   30.8025 C   0  0  0  0  0  0  0  0  0  0  0  0
   12.0145   44.4236   30.8718 C   0  0  0  0  0  0  0  0  0  0  0  0
   10.8847   46.3088   29.8611 C   0  0  0  0  0  0  0  0  0  0  0  0
   13.1068   44.6238   30.0239 C   0  0  0  0  0  0  0  0  0  0  0  0
   11.9773   46.5087   29.0118 C   0  0  0  0  0  0  0  0  0  0  0  0
   13.0997   45.6632   29.0880 C   0  0  0  0  0  0  0  0  0  0  0  0
   14.2201   45.8221   28.2590 O   0  0  0  0  0  0  0  0  0  0  0  0
   14.3479   46.8346   27.2661 C   0  0  0  0  0  0  0  0  0  0  0  0
    8.8075   40.1933   34.2079 O   0  0  0  0  0  0  0  0  0  0  0  0
   11.2360   40.7939   33.3610 O   0  0  0  0  0  0  0  0  0  0  0  0
   10.9036   40.6741   31.9912 C   0  0  0  0  0  0  0  0  0  0  0  0
   11.5130   39.3713   31.4399 C   0  0  0  0  0  0  0  0  0  0  0  0
   12.7441   39.0839   32.0751 O   0  0  0  0  0  0  0  0  0  0  0  0
   10.6036   38.1808   31.6676 C   0  0  0  0  0  0  0  0  0  0  0  0
   12.9344   37.6781   32.0285 C   0  0  0  0  0  0  0  0  0  0  0  0
    9.6368   38.0867   30.6494 O   0  0  0  0  0  0  0  0  0  0  0  0
   11.5770   37.0095   31.7052 C   0  0  0  0  0  0  0  0  0  0  0  0
   13.4910   37.2174   33.3236 N   0  0  0  0  0  0  0  0  0  0  0  0
   11.6250   36.3355   30.4672 O   0  0  0  0  0  0  0  0  0  0  0  0
   14.4766   36.3270   33.5729 C   0  0  0  0  0  0  0  0  0  0  0  0
   13.1182   37.6313   34.5687 C   0  0  0  0  0  0  0  0  0  0  0  0
   15.2067   35.6136   32.6740 N   0  0  0  0  0  0  0  0  0  0  0  0
   14.6737   36.2275   34.9183 C   0  0  0  0  0  0  0  0  0  0  0  0
   13.8228   37.0456   35.5783 N   0  0  0  0  0  0  0  0  0  0  0  0
   16.1639   34.7592   33.1548 C   0  0  0  0  0  0  0  0  0  0  0  0
   15.6518   35.3492   35.4132 C   0  0  0  0  0  0  0  0  0  0  0  0
   16.3793   34.6308   34.5043 N   0  0  0  0  0  0  0  0  0  0  0  0
   15.9004   35.1933   36.8091 N   0  0  0  0  0  0  0  0  0  0  0  0
    9.0442   45.4464   33.7180 H   0  0  0  0  0  0  0  0  0  0  0  0
   11.9768   45.7173   33.2477 H   0  0  0  0  0  0  0  0  0  0  0  0
   11.0543   46.2449   34.5564 H   0  0  0  0  0  0  0  0  0  0  0  0
    8.9154   45.8026   31.4688 H   0  0  0  0  0  0  0  0  0  0  0  0
    9.2304   44.0614   31.4291 H   0  0  0  0  0  0  0  0  0  0  0  0
   12.0594   43.6319   31.6023 H   0  0  0  0  0  0  0  0  0  0  0  0
   10.0308   46.9699   29.7801 H   0  0  0  0  0  0  0  0  0  0  0  0
   13.9664   43.9697   30.0977 H   0  0  0  0  0  0  0  0  0  0  0  0
   11.9380   47.3214   28.2995 H   0  0  0  0  0  0  0  0  0  0  0  0
   13.5452   46.7276   26.5062 H   0  0  0  0  0  0  0  0  0  0  0  0
   14.2978   47.8393   27.7366 H   0  0  0  0  0  0  0  0  0  0  0  0
   15.3303   46.7267   26.7627 H   0  0  0  0  0  0  0  0  0  0  0  0
    9.8119   40.7029   31.7616 H   0  0  0  0  0  0  0  0  0  0  0  0
   11.3649   41.5197   31.4482 H   0  0  0  0  0  0  0  0  0  0  0  0
   11.6954   39.4944   30.3470 H   0  0  0  0  0  0  0  0  0  0  0  0
   10.1085   38.2695   32.6639 H   0  0  0  0  0  0  0  0  0  0  0  0
   13.6678   37.4554   31.2217 H   0  0  0  0  0  0  0  0  0  0  0  0
    8.9779   37.4092   30.9526 H   0  0  0  0  0  0  0  0  0  0  0  0
   11.2885   36.2991   32.5165 H   0  0  0  0  0  0  0  0  0  0  0  0
   10.8721   35.6885   30.4641 H   0  0  0  0  0  0  0  0  0  0  0  0
   12.3355   38.3584   34.7440 H   0  0  0  0  0  0  0  0  0  0  0  0
   16.7573   34.1785   32.4621 H   0  0  0  0  0  0  0  0  0  0  0  0
   16.6362   34.5314   37.1416 H   0  0  0  0  0  0  0  0  0  0  0  0
   15.3531   35.7357   37.5139 H   0  0  0  0  0  0  0  0  0  0  0  0
  1  2  2  0
  1  3  1  0
  3  4  1  0
  4  5  1  0
  6  1  1  0
  7  6  1  0
  6  8  1  0
  8  9  1  0
  9 10  2  0
 11  9  1  0
 10 12  1  0
 13 11  2  0
 12 14  2  0
 14 13  1  0
 14 15  1  0
 15 16  1  0
  4 17  2  0
  4 18  1  0
 19 18  1  0
 19 20  1  0
 20 21  1  0
 20 22  1  0
 21 23  1  0
 22 24  1  0
 22 25  1  0
 25 23  1  0
 23 26  1  0
 25 27  1  0
 28 26  1  0
 29 26  1  0
 30 28  2  0
 28 31  1  0
 32 29  2  0
 33 30  1  0
 31 34  2  0
 31 32  1  0
 35 33  2  0
 35 34  1  0
 34 36  1  0
  6 37  1  1
  7 38  1  0
  7 39  1  0
  8 40  1  0
  8 41  1  0
 10 42  1  0
 11 43  1  0
 12 44  1  0
 13 45  1  0
 16 46  1  0
 16 47  1  0
 16 48  1  0
 19 49  1  0
 19 50  1  0
 20 51  1  0
 22 52  1  0
 23 53  1  0
 24 54  1  0
 25 55  1  0
 27 56  1  0
 29 57  1  0
 33 58  1  0
 36 59  1  0
 36 60  1  0
M  CHG  1   5  -1
M  END
>  <EmbedRMS>  (149) 
0.09120459026278852

$$$$

     RDKit          3D

 60 63  0  0  0  0  0  0  0  0999 V2000
   10.2880   43.7719   33.8023 C   0  0  0  0  0  0  0  0  0  0  0  0
   11.4129   43.5865   34.3533 O   0  0  0  0  0  0  0  0  0  0  0  0
    9.3633   42.7344   33.7121 O   0  0  0  0  0  0  0  0  0  0  0  0
    9.8852   41.2346   34.2857 P   0  0  0  0  0  5  0  0  0  0  0  0
   10.3686   41.4661   35.8757 O   0  0  0  0  0  1  0  0  0  0  0  0
    9.9689   45.1018   33.2141 C   0  0  1  0  0  0  0  0  0  0  0  0
   11.0575   46.0377   33.5062 N   0  0  0  0  0  0  0  0  0  0  0  0
    9.7789   44.9515   31.6903 C   0  0  0  0  0  0  0  0  0  0  0  0
    9.2563   46.2169   31.0584 C   0  0  0  0  0  0  0  0  0  0  0  0
   10.1215   47.0781   30.3652 C   0  0  0  0  0  0  0  0  0  0  0  0
    7.9012   46.5593   31.1821 C   0  0  0  0  0  0  0  0  0  0  0  0
    9.6368   48.2601   29.7973 C   0  0  0  0  0  0  0  0  0  0  0  0
    7.4171   47.7409   30.6138 C   0  0  0  0  0  0  0  0  0  0  0  0
    8.2757   48.5999   29.9182 C   0  0  0  0  0  0  0  0  0  0  0  0
    7.7412   49.7738   29.3667 O   0  0  0  0  0  0  0  0  0  0  0  0
    8.4965   50.7355   28.6374 C   0  0  0  0  0  0  0  0  0  0  0  0
    8.8079   40.1915   34.2092 O   0  0  0  0  0  0  0  0  0  0  0  0
   11.2365   40.7937   33.3657 O   0  0  0  0  0  0  0  0  0  0  0  0
   10.9125   40.6862   31.9933 C   0  0  0  0  0  0  0  0  0  0  0  0
   11.5158   39.3782   31.4399 C   0  0  0  0  0  0  0  0  0  0  0  0
   12.7465   39.0862   32.0746 O   0  0  0  0  0  0  0  0  0  0  0  0
   10.6043   38.1871   31.6670 C   0  0  0  0  0  0  0  0  0  0  0  0
   12.9343   37.6798   32.0284 C   0  0  0  0  0  0  0  0  0  0  0  0
    9.6377   38.0920   30.6487 O   0  0  0  0  0  0  0  0  0  0  0  0
   11.5760   37.0134   31.7057 C   0  0  0  0  0  0  0  0  0  0  0  0
   13.4909   37.2180   33.3233 N   0  0  0  0  0  0  0  0  0  0  0  0
   11.6234   36.3375   30.4685 O   0  0  0  0  0  0  0  0  0  0  0  0
   14.4764   36.3273   33.5727 C   0  0  0  0  0  0  0  0  0  0  0  0
   13.1182   37.6317   34.5686 C   0  0  0  0  0  0  0  0  0  0  0  0
   15.2065   35.6139   32.6738 N   0  0  0  0  0  0  0  0  0  0  0  0
   14.6735   36.2276   34.9181 C   0  0  0  0  0  0  0  0  0  0  0  0
   13.8227   37.0458   35.5781 N   0  0  0  0  0  0  0  0  0  0  0  0
   16.1637   34.7593   33.1547 C   0  0  0  0  0  0  0  0  0  0  0  0
   15.6516   35.3493   35.4130 C   0  0  0  0  0  0  0  0  0  0  0  0
   16.3792   34.6310   34.5042 N   0  0  0  0  0  0  0  0  0  0  0  0
   15.9002   35.1934   36.8089 N   0  0  0  0  0  0  0  0  0  0  0  0
    9.0245   45.4685   33.6764 H   0  0  0  0  0  0  0  0  0  0  0  0
   11.1203   46.1578   34.5442 H   0  0  0  0  0  0  0  0  0  0  0  0
   10.7940   46.9818   33.1429 H   0  0  0  0  0  0  0  0  0  0  0  0
    9.0539   44.1343   31.4786 H   0  0  0  0  0  0  0  0  0  0  0  0
   10.7428   44.6525   31.2211 H   0  0  0  0  0  0  0  0  0  0  0  0
   11.1728   46.8367   30.2679 H   0  0  0  0  0  0  0  0  0  0  0  0
    7.2203   45.9110   31.7199 H   0  0  0  0  0  0  0  0  0  0  0  0
   10.3280   48.9026   29.2691 H   0  0  0  0  0  0  0  0  0  0  0  0
    6.3689   47.9918   30.7159 H   0  0  0  0  0  0  0  0  0  0  0  0
    7.8247   51.5588   28.3194 H   0  0  0  0  0  0  0  0  0  0  0  0
    8.9385   50.2674   27.7325 H   0  0  0  0  0  0  0  0  0  0  0  0
    9.2979   51.1583   29.2795 H   0  0  0  0  0  0  0  0  0  0  0  0
   11.3835   41.5432   31.4658 H   0  0  0  0  0  0  0  0  0  0  0  0
    9.8222   40.7218   31.7582 H   0  0  0  0  0  0  0  0  0  0  0  0
   11.6981   39.5023   30.3473 H   0  0  0  0  0  0  0  0  0  0  0  0
   10.1090   38.2773   32.6628 H   0  0  0  0  0  0  0  0  0  0  0  0
   13.6670   37.4557   31.2213 H   0  0  0  0  0  0  0  0  0  0  0  0
    8.9778   37.4159   30.9531 H   0  0  0  0  0  0  0  0  0  0  0  0
   11.2860   36.3046   32.5178 H   0  0  0  0  0  0  0  0  0  0  0  0
   10.8690   35.6922   30.4658 H   0  0  0  0  0  0  0  0  0  0  0  0
   12.3356   38.3589   34.7441 H   0  0  0  0  0  0  0  0  0  0  0  0
   16.7571   34.1787   32.4620 H   0  0  0  0  0  0  0  0  0  0  0  0
   16.6361   34.5315   37.1414 H   0  0  0  0  0  0  0  0  0  0  0  0
   15.3530   35.7357   37.5137 H   0  0  0  0  0  0  0  0  0  0  0  0
  1  2  2  0
  1  3  1  0
  3  4  1  0
  4  5  1  0
  6  1  1  0
  7  6  1  0
  6  8  1  0
  8  9  1  0
  9 10  2  0
 11  9  1  0
 10 12  1  0
 13 11  2  0
 12 14  2  0
 14 13  1  0
 14 15  1  0
 15 16  1  0
  4 17  2  0
  4 18  1  0
 19 18  1  0
 19 20  1  0
 20 21  1  0
 20 22  1  0
 21 23  1  0
 22 24  1  0
 22 25  1  0
 25 23  1  0
 23 26  1  0
 25 27  1  0
 28 26  1  0
 29 26  1  0
 30 28  2  0
 28 31  1  0
 32 29  2  0
 33 30  1  0
 31 34  2  0
 31 32  1  0
 35 33  2  0
 35 34  1  0
 34 36  1  0
  6 37  1  1
  7 38  1  0
  7 39  1  0
  8 40  1  0
  8 41  1  0
 10 42  1  0
 11 43  1  0
 12 44  1  0
 13 45  1  0
 16 46  1  0
 16 47  1  0
 16 48  1  0
 19 49  1  0
 19 50  1  0
 20 51  1  0
 22 52  1  0
 23 53  1  0
 24 54  1  0
 25 55  1  0
 27 56  1  0
 29 57  1  0
 33 58  1  0
 36 59  1  0
 36 60  1  0
M  CHG  1   5  -1
M  END
>  <EmbedRMS>  (150) 
0.08894307166248304

$$$$

     RDKit          3D

 60 63  0  0  0  0  0  0  0  0999 V2000
   10.2876   43.7724   33.7998 C   0  0  0  0  0  0  0  0  0  0  0  0
   11.4101   43.5904   34.3569 O   0  0  0  0  0  0  0  0  0  0  0  0
    9.3641   42.7339   33.7092 O   0  0  0  0  0  0  0  0  0  0  0  0
    9.8853   41.2350   34.2859 P   0  0  0  0  0  5  0  0  0  0  0  0
   10.3679   41.4675   35.8759 O   0  0  0  0  0  1  0  0  0  0  0  0
    9.9621   45.1044   33.2251 C   0  0  1  0  0  0  0  0  0  0  0  0
   11.0640   46.0309   33.4992 N   0  0  0  0  0  0  0  0  0  0  0  0
    9.6865   44.9768   31.7104 C   0  0  0  0  0  0  0  0  0  0  0  0
    9.2391   46.2855   31.1113 C   0  0  0  0  0  0  0  0  0  0  0  0
   10.1490   47.1001   30.4198 C   0  0  0  0  0  0  0  0  0  0  0  0
    7.9147   46.7197   31.2737 C   0  0  0  0  0  0  0  0  0  0  0  0
    9.7358   48.3250   29.8882 C   0  0  0  0  0  0  0  0  0  0  0  0
    7.5018   47.9448   30.7416 C   0  0  0  0  0  0  0  0  0  0  0  0
    8.4138   48.7582   30.0420 C   0  0  0  0  0  0  0  0  0  0  0  0
    8.0492   49.9953   29.4902 O   0  0  0  0  0  0  0  0  0  0  0  0
    6.7439   50.5582   29.5719 C   0  0  0  0  0  0  0  0  0  0  0  0
    8.8082   40.1917   34.2095 O   0  0  0  0  0  0  0  0  0  0  0  0
   11.2367   40.7929   33.3676 O   0  0  0  0  0  0  0  0  0  0  0  0
   10.9139   40.6893   31.9949 C   0  0  0  0  0  0  0  0  0  0  0  0
   11.5254   39.3878   31.4369 C   0  0  0  0  0  0  0  0  0  0  0  0
   12.7485   39.0900   32.0824 O   0  0  0  0  0  0  0  0  0  0  0  0
   10.6120   38.1897   31.6461 C   0  0  0  0  0  0  0  0  0  0  0  0
   12.9371   37.6833   32.0302 C   0  0  0  0  0  0  0  0  0  0  0  0
    9.6149   38.0841   30.6537 O   0  0  0  0  0  0  0  0  0  0  0  0
   11.5792   37.0141   31.7014 C   0  0  0  0  0  0  0  0  0  0  0  0
   13.4906   37.2172   33.3242 N   0  0  0  0  0  0  0  0  0  0  0  0
   11.6217   36.3256   30.4726 O   0  0  0  0  0  0  0  0  0  0  0  0
   14.4763   36.3268   33.5730 C   0  0  0  0  0  0  0  0  0  0  0  0
   13.1181   37.6310   34.5695 C   0  0  0  0  0  0  0  0  0  0  0  0
   15.2065   35.6138   32.6739 N   0  0  0  0  0  0  0  0  0  0  0  0
   14.6735   36.2270   34.9184 C   0  0  0  0  0  0  0  0  0  0  0  0
   13.8228   37.0451   35.5787 N   0  0  0  0  0  0  0  0  0  0  0  0
   16.1638   34.7594   33.1546 C   0  0  0  0  0  0  0  0  0  0  0  0
   15.6518   35.3489   35.4131 C   0  0  0  0  0  0  0  0  0  0  0  0
   16.3794   34.6308   34.5041 N   0  0  0  0  0  0  0  0  0  0  0  0
   15.9006   35.1931   36.8089 N   0  0  0  0  0  0  0  0  0  0  0  0
    9.0445   45.4726   33.7355 H   0  0  0  0  0  0  0  0  0  0  0  0
   10.7423   47.0072   33.3072 H   0  0  0  0  0  0  0  0  0  0  0  0
   11.8654   45.8305   32.8563 H   0  0  0  0  0  0  0  0  0  0  0  0
    8.8888   44.2204   31.5387 H   0  0  0  0  0  0  0  0  0  0  0  0
   10.5957   44.6027   31.1889 H   0  0  0  0  0  0  0  0  0  0  0  0
   11.1789   46.7893   30.2954 H   0  0  0  0  0  0  0  0  0  0  0  0
    7.2022   46.1088   31.8145 H   0  0  0  0  0  0  0  0  0  0  0  0
   10.4477   48.9429   29.3558 H   0  0  0  0  0  0  0  0  0  0  0  0
    6.4741   48.2507   30.8817 H   0  0  0  0  0  0  0  0  0  0  0  0
    6.4628   50.7181   30.6343 H   0  0  0  0  0  0  0  0  0  0  0  0
    6.7384   51.5379   29.0518 H   0  0  0  0  0  0  0  0  0  0  0  0
    6.0079   49.8892   29.0780 H   0  0  0  0  0  0  0  0  0  0  0  0
   11.3794   41.5518   31.4715 H   0  0  0  0  0  0  0  0  0  0  0  0
    9.8235   40.7185   31.7593 H   0  0  0  0  0  0  0  0  0  0  0  0
   11.7286   39.5295   30.3508 H   0  0  0  0  0  0  0  0  0  0  0  0
   10.1135   38.2721   32.6379 H   0  0  0  0  0  0  0  0  0  0  0  0
   13.6723   37.4646   31.2240 H   0  0  0  0  0  0  0  0  0  0  0  0
   10.0536   38.1089   29.7638 H   0  0  0  0  0  0  0  0  0  0  0  0
   11.2645   36.3139   32.5108 H   0  0  0  0  0  0  0  0  0  0  0  0
   12.1552   35.5037   30.6317 H   0  0  0  0  0  0  0  0  0  0  0  0
   12.3362   38.3588   34.7452 H   0  0  0  0  0  0  0  0  0  0  0  0
   16.7573   34.1789   32.4618 H   0  0  0  0  0  0  0  0  0  0  0  0
   16.6366   34.5314   37.1414 H   0  0  0  0  0  0  0  0  0  0  0  0
   15.3533   35.7353   37.5139 H   0  0  0  0  0  0  0  0  0  0  0  0
  1  2  2  0
  1  3  1  0
  3  4  1  0
  4  5  1  0
  6  1  1  0
  7  6  1  0
  6  8  1  0
  8  9  1  0
  9 10  2  0
 11  9  1  0
 10 12  1  0
 13 11  2  0
 12 14  2  0
 14 13  1  0
 14 15  1  0
 15 16  1  0
  4 17  2  0
  4 18  1  0
 19 18  1  0
 19 20  1  0
 20 21  1  0
 20 22  1  0
 21 23  1  0
 22 24  1  0
 22 25  1  0
 25 23  1  0
 23 26  1  0
 25 27  1  0
 28 26  1  0
 29 26  1  0
 30 28  2  0
 28 31  1  0
 32 29  2  0
 33 30  1  0
 31 34  2  0
 31 32  1  0
 35 33  2  0
 35 34  1  0
 34 36  1  0
  6 37  1  1
  7 38  1  0
  7 39  1  0
  8 40  1  0
  8 41  1  0
 10 42  1  0
 11 43  1  0
 12 44  1  0
 13 45  1  0
 16 46  1  0
 16 47  1  0
 16 48  1  0
 19 49  1  0
 19 50  1  0
 20 51  1  0
 22 52  1  0
 23 53  1  0
 24 54  1  0
 25 55  1  0
 27 56  1  0
 29 57  1  0
 33 58  1  0
 36 59  1  0
 36 60  1  0
M  CHG  1   5  -1
M  END
>  <EmbedRMS>  (151) 
0.08753246219457676

$$$$

     RDKit          3D

 60 63  0  0  0  0  0  0  0  0999 V2000
   10.3000   43.7682   33.7924 C   0  0  0  0  0  0  0  0  0  0  0  0
   11.4162   43.5823   34.3593 O   0  0  0  0  0  0  0  0  0  0  0  0
    9.3694   42.7352   33.7054 O   0  0  0  0  0  0  0  0  0  0  0  0
    9.8862   41.2351   34.2832 P   0  0  0  0  0  5  0  0  0  0  0  0
   10.3698   41.4669   35.8733 O   0  0  0  0  0  1  0  0  0  0  0  0
    9.9796   45.1072   33.2191 C   0  0  1  0  0  0  0  0  0  0  0  0
   11.0353   46.0791   33.5233 N   0  0  0  0  0  0  0  0  0  0  0  0
    9.6909   45.0375   31.6962 C   0  0  0  0  0  0  0  0  0  0  0  0
   10.8941   45.2648   30.8026 C   0  0  0  0  0  0  0  0  0  0  0  0
   12.0151   44.4226   30.8723 C   0  0  0  0  0  0  0  0  0  0  0  0
   10.8862   46.3080   29.8611 C   0  0  0  0  0  0  0  0  0  0  0  0
   13.1077   44.6224   30.0248 C   0  0  0  0  0  0  0  0  0  0  0  0
   11.9791   46.5075   29.0122 C   0  0  0  0  0  0  0  0  0  0  0  0
   13.1012   45.6617   29.0888 C   0  0  0  0  0  0  0  0  0  0  0  0
   14.2218   45.8203   28.2601 O   0  0  0  0  0  0  0  0  0  0  0  0
   14.3503   46.8326   27.2672 C   0  0  0  0  0  0  0  0  0  0  0  0
    8.8074   40.1933   34.2080 O   0  0  0  0  0  0  0  0  0  0  0  0
   11.2357   40.7941   33.3608 O   0  0  0  0  0  0  0  0  0  0  0  0
   10.9027   40.6734   31.9911 C   0  0  0  0  0  0  0  0  0  0  0  0
   11.5138   39.3713   31.4400 C   0  0  0  0  0  0  0  0  0  0  0  0
   12.7445   39.0853   32.0768 O   0  0  0  0  0  0  0  0  0  0  0  0
   10.6058   38.1792   31.6663 C   0  0  0  0  0  0  0  0  0  0  0  0
   12.9370   37.6802   32.0293 C   0  0  0  0  0  0  0  0  0  0  0  0
    9.6394   38.0832   30.6480 O   0  0  0  0  0  0  0  0  0  0  0  0
   11.5798   37.0099   31.7041 C   0  0  0  0  0  0  0  0  0  0  0  0
   13.4916   37.2179   33.3241 N   0  0  0  0  0  0  0  0  0  0  0  0
   11.6141   36.3372   30.4662 O   0  0  0  0  0  0  0  0  0  0  0  0
   14.4767   36.3270   33.5732 C   0  0  0  0  0  0  0  0  0  0  0  0
   13.1185   37.6315   34.5691 C   0  0  0  0  0  0  0  0  0  0  0  0
   15.2067   35.6138   32.6741 N   0  0  0  0  0  0  0  0  0  0  0  0
   14.6737   36.2273   34.9185 C   0  0  0  0  0  0  0  0  0  0  0  0
   13.8229   37.0454   35.5786 N   0  0  0  0  0  0  0  0  0  0  0  0
   16.1638   34.7592   33.1549 C   0  0  0  0  0  0  0  0  0  0  0  0
   15.6518   35.3490   35.4133 C   0  0  0  0  0  0  0  0  0  0  0  0
   16.3793   34.6308   34.5044 N   0  0  0  0  0  0  0  0  0  0  0  0
   15.9005   35.1932   36.8091 N   0  0  0  0  0  0  0  0  0  0  0  0
    9.0441   45.4464   33.7176 H   0  0  0  0  0  0  0  0  0  0  0  0
   11.0541   46.2449   34.5564 H   0  0  0  0  0  0  0  0  0  0  0  0
   11.9768   45.7173   33.2479 H   0  0  0  0  0  0  0  0  0  0  0  0
    9.2307   44.0613   31.4289 H   0  0  0  0  0  0  0  0  0  0  0  0
    8.9162   45.8026   31.4683 H   0  0  0  0  0  0  0  0  0  0  0  0
   12.0595   43.6309   31.6029 H   0  0  0  0  0  0  0  0  0  0  0  0
   10.0325   46.9694   29.7798 H   0  0  0  0  0  0  0  0  0  0  0  0
   13.9671   43.9680   30.0989 H   0  0  0  0  0  0  0  0  0  0  0  0
   11.9403   47.3202   28.2998 H   0  0  0  0  0  0  0  0  0  0  0  0
   15.3329   46.7244   26.7640 H   0  0  0  0  0  0  0  0  0  0  0  0
   14.3003   47.8373   27.7376 H   0  0  0  0  0  0  0  0  0  0  0  0
   13.5478   46.7258   26.5070 H   0  0  0  0  0  0  0  0  0  0  0  0
    9.8108   40.7002   31.7622 H   0  0  0  0  0  0  0  0  0  0  0  0
   11.3622   41.5195   31.4476 H   0  0  0  0  0  0  0  0  0  0  0  0
   11.6973   39.4948   30.3474 H   0  0  0  0  0  0  0  0  0  0  0  0
   10.1087   38.2674   32.6615 H   0  0  0  0  0  0  0  0  0  0  0  0
   13.6719   37.4601   31.2232 H   0  0  0  0  0  0  0  0  0  0  0  0
    9.0033   37.3770   30.9342 H   0  0  0  0  0  0  0  0  0  0  0  0
   11.2730   36.2998   32.5076 H   0  0  0  0  0  0  0  0  0  0  0  0
   12.1481   35.5131   30.6114 H   0  0  0  0  0  0  0  0  0  0  0  0
   12.3361   38.3589   34.7445 H   0  0  0  0  0  0  0  0  0  0  0  0
   16.7572   34.1786   32.4621 H   0  0  0  0  0  0  0  0  0  0  0  0
   15.3533   35.7355   37.5140 H   0  0  0  0  0  0  0  0  0  0  0  0
   16.6363   34.5313   37.1416 H   0  0  0  0  0  0  0  0  0  0  0  0
  1  2  2  0
  1  3  1  0
  3  4  1  0
  4  5  1  0
  6  1  1  0
  7  6  1  0
  6  8  1  0
  8  9  1  0
  9 10  2  0
 11  9  1  0
 10 12  1  0
 13 11  2  0
 12 14  2  0
 14 13  1  0
 14 15  1  0
 15 16  1  0
  4 17  2  0
  4 18  1  0
 19 18  1  0
 19 20  1  0
 20 21  1  0
 20 22  1  0
 21 23  1  0
 22 24  1  0
 22 25  1  0
 25 23  1  0
 23 26  1  0
 25 27  1  0
 28 26  1  0
 29 26  1  0
 30 28  2  0
 28 31  1  0
 32 29  2  0
 33 30  1  0
 31 34  2  0
 31 32  1  0
 35 33  2  0
 35 34  1  0
 34 36  1  0
  6 37  1  1
  7 38  1  0
  7 39  1  0
  8 40  1  0
  8 41  1  0
 10 42  1  0
 11 43  1  0
 12 44  1  0
 13 45  1  0
 16 46  1  0
 16 47  1  0
 16 48  1  0
 19 49  1  0
 19 50  1  0
 20 51  1  0
 22 52  1  0
 23 53  1  0
 24 54  1  0
 25 55  1  0
 27 56  1  0
 29 57  1  0
 33 58  1  0
 36 59  1  0
 36 60  1  0
M  CHG  1   5  -1
M  END
>  <EmbedRMS>  (152) 
0.09102869496803703

$$$$

     RDKit          3D

 60 63  0  0  0  0  0  0  0  0999 V2000
   10.2904   43.7682   33.8031 C   0  0  0  0  0  0  0  0  0  0  0  0
   11.4118   43.5807   34.3603 O   0  0  0  0  0  0  0  0  0  0  0  0
    9.3644   42.7327   33.7095 O   0  0  0  0  0  0  0  0  0  0  0  0
    9.8840   41.2332   34.2858 P   0  0  0  0  0  5  0  0  0  0  0  0
   10.3664   41.4657   35.8761 O   0  0  0  0  0  1  0  0  0  0  0  0
    9.9698   45.1050   33.2283 C   0  0  1  0  0  0  0  0  0  0  0  0
   11.0570   46.0521   33.4895 N   0  0  0  0  0  0  0  0  0  0  0  0
    9.7167   44.9860   31.7145 C   0  0  0  0  0  0  0  0  0  0  0  0
    9.3009   46.3079   31.1216 C   0  0  0  0  0  0  0  0  0  0  0  0
    7.9664   46.7328   31.2097 C   0  0  0  0  0  0  0  0  0  0  0  0
   10.2502   47.1464   30.5174 C   0  0  0  0  0  0  0  0  0  0  0  0
    7.5826   47.9709   30.6859 C   0  0  0  0  0  0  0  0  0  0  0  0
    9.8661   48.3841   29.9939 C   0  0  0  0  0  0  0  0  0  0  0  0
    8.5341   48.8073   30.0712 C   0  0  0  0  0  0  0  0  0  0  0  0
    8.1996   50.0579   29.5308 O   0  0  0  0  0  0  0  0  0  0  0  0
    6.8884   50.6129   29.5408 C   0  0  0  0  0  0  0  0  0  0  0  0
    8.8067   40.1904   34.2088 O   0  0  0  0  0  0  0  0  0  0  0  0
   11.2361   40.7915   33.3682 O   0  0  0  0  0  0  0  0  0  0  0  0
   10.9147   40.6898   31.9952 C   0  0  0  0  0  0  0  0  0  0  0  0
   11.5246   39.3879   31.4367 C   0  0  0  0  0  0  0  0  0  0  0  0
   12.7481   39.0885   32.0807 O   0  0  0  0  0  0  0  0  0  0  0  0
   10.6098   38.1913   31.6470 C   0  0  0  0  0  0  0  0  0  0  0  0
   12.9346   37.6813   32.0293 C   0  0  0  0  0  0  0  0  0  0  0  0
    9.6125   38.0876   30.6545 O   0  0  0  0  0  0  0  0  0  0  0  0
   11.5766   37.0137   31.7026 C   0  0  0  0  0  0  0  0  0  0  0  0
   13.4901   37.2167   33.3236 N   0  0  0  0  0  0  0  0  0  0  0  0
   11.6321   36.3233   30.4742 O   0  0  0  0  0  0  0  0  0  0  0  0
   14.4762   36.3267   33.5727 C   0  0  0  0  0  0  0  0  0  0  0  0
   13.1179   37.6308   34.5689 C   0  0  0  0  0  0  0  0  0  0  0  0
   15.2065   35.6136   32.6738 N   0  0  0  0  0  0  0  0  0  0  0  0
   14.6735   36.2272   34.9181 C   0  0  0  0  0  0  0  0  0  0  0  0
   13.8228   37.0453   35.5783 N   0  0  0  0  0  0  0  0  0  0  0  0
   16.1639   34.7593   33.1546 C   0  0  0  0  0  0  0  0  0  0  0  0
   15.6518   35.3491   35.4130 C   0  0  0  0  0  0  0  0  0  0  0  0
   16.3794   34.6309   34.5041 N   0  0  0  0  0  0  0  0  0  0  0  0
   15.9004   35.1933   36.8089 N   0  0  0  0  0  0  0  0  0  0  0  0
    9.0441   45.4767   33.7208 H   0  0  0  0  0  0  0  0  0  0  0  0
   11.9532   45.6971   33.0808 H   0  0  0  0  0  0  0  0  0  0  0  0
   11.1829   46.1616   34.5227 H   0  0  0  0  0  0  0  0  0  0  0  0
   10.6319   44.6080   31.2063 H   0  0  0  0  0  0  0  0  0  0  0  0
    8.9135   44.2396   31.5254 H   0  0  0  0  0  0  0  0  0  0  0  0
    7.2235   46.1048   31.6860 H   0  0  0  0  0  0  0  0  0  0  0  0
   11.2880   46.8432   30.4536 H   0  0  0  0  0  0  0  0  0  0  0  0
    6.5462   48.2688   30.7664 H   0  0  0  0  0  0  0  0  0  0  0  0
   10.6081   49.0199   29.5278 H   0  0  0  0  0  0  0  0  0  0  0  0
    6.1909   49.9548   28.9807 H   0  0  0  0  0  0  0  0  0  0  0  0
    6.5363   50.7419   30.5861 H   0  0  0  0  0  0  0  0  0  0  0  0
    6.9116   51.6066   29.0486 H   0  0  0  0  0  0  0  0  0  0  0  0
    9.8246   40.7212   31.7584 H   0  0  0  0  0  0  0  0  0  0  0  0
   11.3823   41.5520   31.4732 H   0  0  0  0  0  0  0  0  0  0  0  0
   11.7269   39.5295   30.3505 H   0  0  0  0  0  0  0  0  0  0  0  0
   10.1118   38.2733   32.6389 H   0  0  0  0  0  0  0  0  0  0  0  0
   13.6683   37.4600   31.2224 H   0  0  0  0  0  0  0  0  0  0  0  0
   10.0514   38.1116   29.7647 H   0  0  0  0  0  0  0  0  0  0  0  0
   11.2801   36.3133   32.5196 H   0  0  0  0  0  0  0  0  0  0  0  0
   10.8624   35.6963   30.4646 H   0  0  0  0  0  0  0  0  0  0  0  0
   12.3356   38.3582   34.7446 H   0  0  0  0  0  0  0  0  0  0  0  0
   16.7574   34.1788   32.4618 H   0  0  0  0  0  0  0  0  0  0  0  0
   16.6364   34.5315   37.1414 H   0  0  0  0  0  0  0  0  0  0  0  0
   15.3531   35.7356   37.5137 H   0  0  0  0  0  0  0  0  0  0  0  0
  1  2  2  0
  1  3  1  0
  3  4  1  0
  4  5  1  0
  6  1  1  0
  7  6  1  0
  6  8  1  0
  8  9  1  0
  9 10  2  0
 11  9  1  0
 10 12  1  0
 13 11  2  0
 12 14  2  0
 14 13  1  0
 14 15  1  0
 15 16  1  0
  4 17  2  0
  4 18  1  0
 19 18  1  0
 19 20  1  0
 20 21  1  0
 20 22  1  0
 21 23  1  0
 22 24  1  0
 22 25  1  0
 25 23  1  0
 23 26  1  0
 25 27  1  0
 28 26  1  0
 29 26  1  0
 30 28  2  0
 28 31  1  0
 32 29  2  0
 33 30  1  0
 31 34  2  0
 31 32  1  0
 35 33  2  0
 35 34  1  0
 34 36  1  0
  6 37  1  1
  7 38  1  0
  7 39  1  0
  8 40  1  0
  8 41  1  0
 10 42  1  0
 11 43  1  0
 12 44  1  0
 13 45  1  0
 16 46  1  0
 16 47  1  0
 16 48  1  0
 19 49  1  0
 19 50  1  0
 20 51  1  0
 22 52  1  0
 23 53  1  0
 24 54  1  0
 25 55  1  0
 27 56  1  0
 29 57  1  0
 33 58  1  0
 36 59  1  0
 36 60  1  0
M  CHG  1   5  -1
M  END
>  <EmbedRMS>  (153) 
0.08856021445395396

$$$$

     RDKit          3D

 60 63  0  0  0  0  0  0  0  0999 V2000
   10.2894   43.7709   33.7894 C   0  0  0  0  0  0  0  0  0  0  0  0
   11.4115   43.5887   34.3475 O   0  0  0  0  0  0  0  0  0  0  0  0
    9.3641   42.7335   33.7088 O   0  0  0  0  0  0  0  0  0  0  0  0
    9.8855   41.2349   34.2856 P   0  0  0  0  0  5  0  0  0  0  0  0
   10.3683   41.4681   35.8754 O   0  0  0  0  0  1  0  0  0  0  0  0
    9.9587   45.1134   33.2315 C   0  0  1  0  0  0  0  0  0  0  0  0
   11.0635   46.0339   33.5070 N   0  0  0  0  0  0  0  0  0  0  0  0
    9.6705   45.0602   31.7117 C   0  0  0  0  0  0  0  0  0  0  0  0
    8.4255   44.2745   31.3754 C   0  0  0  0  0  0  0  0  0  0  0  0
    7.1637   44.7277   31.7920 C   0  0  0  0  0  0  0  0  0  0  0  0
    8.5152   43.0839   30.6377 C   0  0  0  0  0  0  0  0  0  0  0  0
    6.0142   43.9868   31.5016 C   0  0  0  0  0  0  0  0  0  0  0  0
    7.3668   42.3419   30.3503 C   0  0  0  0  0  0  0  0  0  0  0  0
    6.1098   42.7817   30.7799 C   0  0  0  0  0  0  0  0  0  0  0  0
    4.9879   41.9992   30.4693 O   0  0  0  0  0  0  0  0  0  0  0  0
    3.6533   42.3232   30.8450 C   0  0  0  0  0  0  0  0  0  0  0  0
    8.8076   40.1923   34.2097 O   0  0  0  0  0  0  0  0  0  0  0  0
   11.2366   40.7917   33.3668 O   0  0  0  0  0  0  0  0  0  0  0  0
   10.9113   40.6823   31.9952 C   0  0  0  0  0  0  0  0  0  0  0  0
   11.5172   39.3771   31.4406 C   0  0  0  0  0  0  0  0  0  0  0  0
   12.7475   39.0870   32.0764 O   0  0  0  0  0  0  0  0  0  0  0  0
   10.6069   38.1846   31.6658 C   0  0  0  0  0  0  0  0  0  0  0  0
   12.9372   37.6812   32.0292 C   0  0  0  0  0  0  0  0  0  0  0  0
    9.6405   38.0884   30.6473 O   0  0  0  0  0  0  0  0  0  0  0  0
   11.5791   37.0132   31.7043 C   0  0  0  0  0  0  0  0  0  0  0  0
   13.4915   37.2181   33.3240 N   0  0  0  0  0  0  0  0  0  0  0  0
   11.6128   36.3390   30.4671 O   0  0  0  0  0  0  0  0  0  0  0  0
   14.4766   36.3271   33.5731 C   0  0  0  0  0  0  0  0  0  0  0  0
   13.1184   37.6316   34.5691 C   0  0  0  0  0  0  0  0  0  0  0  0
   15.2066   35.6139   32.6740 N   0  0  0  0  0  0  0  0  0  0  0  0
   14.6735   36.2273   34.9184 C   0  0  0  0  0  0  0  0  0  0  0  0
   13.8228   37.0455   35.5785 N   0  0  0  0  0  0  0  0  0  0  0  0
   16.1638   34.7593   33.1548 C   0  0  0  0  0  0  0  0  0  0  0  0
   15.6517   35.3490   35.4132 C   0  0  0  0  0  0  0  0  0  0  0  0
   16.3793   34.6308   34.5043 N   0  0  0  0  0  0  0  0  0  0  0  0
   15.9004   35.1932   36.8090 N   0  0  0  0  0  0  0  0  0  0  0  0
    9.0577   45.4862   33.7658 H   0  0  0  0  0  0  0  0  0  0  0  0
   10.7585   47.0044   33.2628 H   0  0  0  0  0  0  0  0  0  0  0  0
   11.8782   45.8016   32.8918 H   0  0  0  0  0  0  0  0  0  0  0  0
   10.5540   44.6379   31.1830 H   0  0  0  0  0  0  0  0  0  0  0  0
    9.5343   46.0958   31.3307 H   0  0  0  0  0  0  0  0  0  0  0  0
    7.0699   45.6536   32.3456 H   0  0  0  0  0  0  0  0  0  0  0  0
    9.4743   42.7269   30.2860 H   0  0  0  0  0  0  0  0  0  0  0  0
    5.0580   44.3590   31.8428 H   0  0  0  0  0  0  0  0  0  0  0  0
    7.4539   41.4198   29.7897 H   0  0  0  0  0  0  0  0  0  0  0  0
    3.5697   42.3738   31.9512 H   0  0  0  0  0  0  0  0  0  0  0  0
    2.9698   41.5327   30.4729 H   0  0  0  0  0  0  0  0  0  0  0  0
    3.3544   43.2930   30.3941 H   0  0  0  0  0  0  0  0  0  0  0  0
    9.8203   40.7066   31.7643 H   0  0  0  0  0  0  0  0  0  0  0  0
   11.3781   41.5406   31.4668 H   0  0  0  0  0  0  0  0  0  0  0  0
   11.7000   39.5029   30.3483 H   0  0  0  0  0  0  0  0  0  0  0  0
   10.1095   38.2738   32.6606 H   0  0  0  0  0  0  0  0  0  0  0  0
   13.6715   37.4597   31.2229 H   0  0  0  0  0  0  0  0  0  0  0  0
    9.0016   37.3856   30.9356 H   0  0  0  0  0  0  0  0  0  0  0  0
   11.2709   36.3044   32.5085 H   0  0  0  0  0  0  0  0  0  0  0  0
   12.1451   35.5140   30.6135 H   0  0  0  0  0  0  0  0  0  0  0  0
   12.3362   38.3592   34.7445 H   0  0  0  0  0  0  0  0  0  0  0  0
   16.7571   34.1787   32.4620 H   0  0  0  0  0  0  0  0  0  0  0  0
   16.6363   34.5314   37.1416 H   0  0  0  0  0  0  0  0  0  0  0  0
   15.3532   35.7355   37.5139 H   0  0  0  0  0  0  0  0  0  0  0  0
  1  2  2  0
  1  3  1  0
  3  4  1  0
  4  5  1  0
  6  1  1  0
  7  6  1  0
  6  8  1  0
  8  9  1  0
  9 10  2  0
 11  9  1  0
 10 12  1  0
 13 11  2  0
 12 14  2  0
 14 13  1  0
 14 15  1  0
 15 16  1  0
  4 17  2  0
  4 18  1  0
 19 18  1  0
 19 20  1  0
 20 21  1  0
 20 22  1  0
 21 23  1  0
 22 24  1  0
 22 25  1  0
 25 23  1  0
 23 26  1  0
 25 27  1  0
 28 26  1  0
 29 26  1  0
 30 28  2  0
 28 31  1  0
 32 29  2  0
 33 30  1  0
 31 34  2  0
 31 32  1  0
 35 33  2  0
 35 34  1  0
 34 36  1  0
  6 37  1  1
  7 38  1  0
  7 39  1  0
  8 40  1  0
  8 41  1  0
 10 42  1  0
 11 43  1  0
 12 44  1  0
 13 45  1  0
 16 46  1  0
 16 47  1  0
 16 48  1  0
 19 49  1  0
 19 50  1  0
 20 51  1  0
 22 52  1  0
 23 53  1  0
 24 54  1  0
 25 55  1  0
 27 56  1  0
 29 57  1  0
 33 58  1  0
 36 59  1  0
 36 60  1  0
M  CHG  1   5  -1
M  END
>  <EmbedRMS>  (154) 
0.0890349995333578

$$$$

     RDKit          3D

 60 63  0  0  0  0  0  0  0  0999 V2000
   10.2904   43.7682   33.8031 C   0  0  0  0  0  0  0  0  0  0  0  0
   11.4117   43.5807   34.3602 O   0  0  0  0  0  0  0  0  0  0  0  0
    9.3643   42.7327   33.7094 O   0  0  0  0  0  0  0  0  0  0  0  0
    9.8843   41.2331   34.2850 P   0  0  0  0  0  5  0  0  0  0  0  0
   10.3672   41.4653   35.8751 O   0  0  0  0  0  1  0  0  0  0  0  0
    9.9697   45.1051   33.2284 C   0  0  1  0  0  0  0  0  0  0  0  0
   11.0570   46.0521   33.4896 N   0  0  0  0  0  0  0  0  0  0  0  0
    9.7164   44.9863   31.7146 C   0  0  0  0  0  0  0  0  0  0  0  0
    9.2988   46.3080   31.1225 C   0  0  0  0  0  0  0  0  0  0  0  0
   10.2476   47.1497   30.5215 C   0  0  0  0  0  0  0  0  0  0  0  0
    7.9633   46.7297   31.2083 C   0  0  0  0  0  0  0  0  0  0  0  0
    9.8633   48.3880   29.9984 C   0  0  0  0  0  0  0  0  0  0  0  0
    7.5795   47.9676   30.6849 C   0  0  0  0  0  0  0  0  0  0  0  0
    8.5209   48.8058   30.0763 C   0  0  0  0  0  0  0  0  0  0  0  0
    8.0855   50.0382   29.5669 O   0  0  0  0  0  0  0  0  0  0  0  0
    8.9319   50.9871   28.9261 C   0  0  0  0  0  0  0  0  0  0  0  0
    8.8067   40.1904   34.2085 O   0  0  0  0  0  0  0  0  0  0  0  0
   11.2357   40.7922   33.3657 O   0  0  0  0  0  0  0  0  0  0  0  0
   10.9121   40.6852   31.9932 C   0  0  0  0  0  0  0  0  0  0  0  0
   11.5168   39.3780   31.4397 C   0  0  0  0  0  0  0  0  0  0  0  0
   12.7471   39.0875   32.0760 O   0  0  0  0  0  0  0  0  0  0  0  0
   10.6066   38.1854   31.6656 C   0  0  0  0  0  0  0  0  0  0  0  0
   12.9370   37.6817   32.0291 C   0  0  0  0  0  0  0  0  0  0  0  0
    9.6402   38.0884   30.6474 O   0  0  0  0  0  0  0  0  0  0  0  0
   11.5788   37.0138   31.7045 C   0  0  0  0  0  0  0  0  0  0  0  0
   13.4915   37.2184   33.3239 N   0  0  0  0  0  0  0  0  0  0  0  0
   11.6125   36.3391   30.4674 O   0  0  0  0  0  0  0  0  0  0  0  0
   14.4765   36.3273   33.5730 C   0  0  0  0  0  0  0  0  0  0  0  0
   13.1184   37.6318   34.5691 C   0  0  0  0  0  0  0  0  0  0  0  0
   15.2066   35.6140   32.6740 N   0  0  0  0  0  0  0  0  0  0  0  0
   14.6735   36.2274   34.9184 C   0  0  0  0  0  0  0  0  0  0  0  0
   13.8227   37.0456   35.5785 N   0  0  0  0  0  0  0  0  0  0  0  0
   16.1637   34.7594   33.1547 C   0  0  0  0  0  0  0  0  0  0  0  0
   15.6516   35.3491   35.4131 C   0  0  0  0  0  0  0  0  0  0  0  0
   16.3792   34.6309   34.5042 N   0  0  0  0  0  0  0  0  0  0  0  0
   15.9003   35.1932   36.8090 N   0  0  0  0  0  0  0  0  0  0  0  0
    9.0441   45.4767   33.7211 H   0  0  0  0  0  0  0  0  0  0  0  0
   11.9531   45.6971   33.0808 H   0  0  0  0  0  0  0  0  0  0  0  0
   11.1829   46.1616   34.5227 H   0  0  0  0  0  0  0  0  0  0  0  0
    8.9140   44.2391   31.5254 H   0  0  0  0  0  0  0  0  0  0  0  0
   10.6319   44.6097   31.2060 H   0  0  0  0  0  0  0  0  0  0  0  0
   11.2861   46.8481   30.4600 H   0  0  0  0  0  0  0  0  0  0  0  0
    7.2201   46.1001   31.6819 H   0  0  0  0  0  0  0  0  0  0  0  0
   10.6169   49.0128   29.5390 H   0  0  0  0  0  0  0  0  0  0  0  0
    6.5450   48.2791   30.7551 H   0  0  0  0  0  0  0  0  0  0  0  0
    9.7253   51.3248   29.6259 H   0  0  0  0  0  0  0  0  0  0  0  0
    9.3880   50.5398   28.0177 H   0  0  0  0  0  0  0  0  0  0  0  0
    8.3271   51.8664   28.6238 H   0  0  0  0  0  0  0  0  0  0  0  0
   11.3824   41.5428   31.4662 H   0  0  0  0  0  0  0  0  0  0  0  0
    9.8218   40.7195   31.7578 H   0  0  0  0  0  0  0  0  0  0  0  0
   11.7002   39.5025   30.3474 H   0  0  0  0  0  0  0  0  0  0  0  0
   10.1093   38.2753   32.6605 H   0  0  0  0  0  0  0  0  0  0  0  0
   13.6711   37.4601   31.2227 H   0  0  0  0  0  0  0  0  0  0  0  0
    9.0032   37.3836   30.9349 H   0  0  0  0  0  0  0  0  0  0  0  0
   11.2705   36.3052   32.5089 H   0  0  0  0  0  0  0  0  0  0  0  0
   12.1446   35.5140   30.6143 H   0  0  0  0  0  0  0  0  0  0  0  0
   12.3362   38.3593   34.7446 H   0  0  0  0  0  0  0  0  0  0  0  0
   16.7570   34.1788   32.4619 H   0  0  0  0  0  0  0  0  0  0  0  0
   15.3532   35.7356   37.5139 H   0  0  0  0  0  0  0  0  0  0  0  0
   16.6363   34.5314   37.1415 H   0  0  0  0  0  0  0  0  0  0  0  0
  1  2  2  0
  1  3  1  0
  3  4  1  0
  4  5  1  0
  6  1  1  0
  7  6  1  0
  6  8  1  0
  8  9  1  0
  9 10  2  0
 11  9  1  0
 10 12  1  0
 13 11  2  0
 12 14  2  0
 14 13  1  0
 14 15  1  0
 15 16  1  0
  4 17  2  0
  4 18  1  0
 19 18  1  0
 19 20  1  0
 20 21  1  0
 20 22  1  0
 21 23  1  0
 22 24  1  0
 22 25  1  0
 25 23  1  0
 23 26  1  0
 25 27  1  0
 28 26  1  0
 29 26  1  0
 30 28  2  0
 28 31  1  0
 32 29  2  0
 33 30  1  0
 31 34  2  0
 31 32  1  0
 35 33  2  0
 35 34  1  0
 34 36  1  0
  6 37  1  1
  7 38  1  0
  7 39  1  0
  8 40  1  0
  8 41  1  0
 10 42  1  0
 11 43  1  0
 12 44  1  0
 13 45  1  0
 16 46  1  0
 16 47  1  0
 16 48  1  0
 19 49  1  0
 19 50  1  0
 20 51  1  0
 22 52  1  0
 23 53  1  0
 24 54  1  0
 25 55  1  0
 27 56  1  0
 29 57  1  0
 33 58  1  0
 36 59  1  0
 36 60  1  0
M  CHG  1   5  -1
M  END
>  <EmbedRMS>  (155) 
0.08923853578297586

$$$$

     RDKit          3D

 60 63  0  0  0  0  0  0  0  0999 V2000
   10.2941   43.7720   33.7964 C   0  0  0  0  0  0  0  0  0  0  0  0
   11.4140   43.5897   34.3580 O   0  0  0  0  0  0  0  0  0  0  0  0
    9.3672   42.7358   33.7087 O   0  0  0  0  0  0  0  0  0  0  0  0
    9.8871   41.2359   34.2845 P   0  0  0  0  0  5  0  0  0  0  0  0
   10.3697   41.4673   35.8747 O   0  0  0  0  0  1  0  0  0  0  0  0
    9.9760   45.1033   33.2100 C   0  0  1  0  0  0  0  0  0  0  0  0
   11.0440   46.0544   33.5250 N   0  0  0  0  0  0  0  0  0  0  0  0
    9.7486   45.0012   31.6779 C   0  0  0  0  0  0  0  0  0  0  0  0
   10.9942   45.2141   30.8392 C   0  0  0  0  0  0  0  0  0  0  0  0
   11.0109   46.2072   29.8452 C   0  0  0  0  0  0  0  0  0  0  0  0
   12.1333   44.4114   31.0152 C   0  0  0  0  0  0  0  0  0  0  0  0
   12.1455   46.3974   29.0514 C   0  0  0  0  0  0  0  0  0  0  0  0
   13.2677   44.6018   30.2213 C   0  0  0  0  0  0  0  0  0  0  0  0
   13.2808   45.6001   29.2299 C   0  0  0  0  0  0  0  0  0  0  0  0
   14.3937   45.8300   28.4075 O   0  0  0  0  0  0  0  0  0  0  0  0
   15.6112   45.0952   28.4791 C   0  0  0  0  0  0  0  0  0  0  0  0
    8.8093   40.1931   34.2079 O   0  0  0  0  0  0  0  0  0  0  0  0
   11.2379   40.7959   33.3635 O   0  0  0  0  0  0  0  0  0  0  0  0
   10.9098   40.6814   31.9925 C   0  0  0  0  0  0  0  0  0  0  0  0
   11.5149   39.3759   31.4402 C   0  0  0  0  0  0  0  0  0  0  0  0
   12.7456   39.0869   32.0762 O   0  0  0  0  0  0  0  0  0  0  0  0
   10.6044   38.1833   31.6661 C   0  0  0  0  0  0  0  0  0  0  0  0
   12.9358   37.6813   32.0291 C   0  0  0  0  0  0  0  0  0  0  0  0
    9.6416   38.0700   30.6446 O   0  0  0  0  0  0  0  0  0  0  0  0
   11.5772   37.0135   31.7043 C   0  0  0  0  0  0  0  0  0  0  0  0
   13.4909   37.2182   33.3238 N   0  0  0  0  0  0  0  0  0  0  0  0
   11.6115   36.3389   30.4672 O   0  0  0  0  0  0  0  0  0  0  0  0
   14.4762   36.3273   33.5729 C   0  0  0  0  0  0  0  0  0  0  0  0
   13.1181   37.6318   34.5690 C   0  0  0  0  0  0  0  0  0  0  0  0
   15.2063   35.6140   32.6739 N   0  0  0  0  0  0  0  0  0  0  0  0
   14.6734   36.2275   34.9183 C   0  0  0  0  0  0  0  0  0  0  0  0
   13.8227   37.0456   35.5784 N   0  0  0  0  0  0  0  0  0  0  0  0
   16.1636   34.7595   33.1546 C   0  0  0  0  0  0  0  0  0  0  0  0
   15.6516   35.3492   35.4130 C   0  0  0  0  0  0  0  0  0  0  0  0
   16.3791   34.6310   34.5041 N   0  0  0  0  0  0  0  0  0  0  0  0
   15.9003   35.1933   36.8089 N   0  0  0  0  0  0  0  0  0  0  0  0
    9.0287   45.4512   33.6814 H   0  0  0  0  0  0  0  0  0  0  0  0
   11.0604   46.2026   34.5610 H   0  0  0  0  0  0  0  0  0  0  0  0
   10.7869   46.9814   33.1136 H   0  0  0  0  0  0  0  0  0  0  0  0
    9.3005   44.0200   31.4077 H   0  0  0  0  0  0  0  0  0  0  0  0
    8.9860   45.7632   31.4040 H   0  0  0  0  0  0  0  0  0  0  0  0
   10.1454   46.8370   29.6811 H   0  0  0  0  0  0  0  0  0  0  0  0
   12.1555   43.6472   31.7759 H   0  0  0  0  0  0  0  0  0  0  0  0
   12.1418   47.1683   28.2912 H   0  0  0  0  0  0  0  0  0  0  0  0
   14.1285   43.9687   30.3877 H   0  0  0  0  0  0  0  0  0  0  0  0
   16.0712   45.2153   29.4827 H   0  0  0  0  0  0  0  0  0  0  0  0
   15.4215   44.0208   28.2714 H   0  0  0  0  0  0  0  0  0  0  0  0
   16.3157   45.4855   27.7164 H   0  0  0  0  0  0  0  0  0  0  0  0
    9.8200   40.7232   31.7597 H   0  0  0  0  0  0  0  0  0  0  0  0
   11.3790   41.5280   31.4550 H   0  0  0  0  0  0  0  0  0  0  0  0
   11.6976   39.4995   30.3475 H   0  0  0  0  0  0  0  0  0  0  0  0
   10.1096   38.2565   32.6644 H   0  0  0  0  0  0  0  0  0  0  0  0
   13.6699   37.4600   31.2226 H   0  0  0  0  0  0  0  0  0  0  0  0
    8.8946   38.6768   30.8863 H   0  0  0  0  0  0  0  0  0  0  0  0
   11.2708   36.3035   32.5083 H   0  0  0  0  0  0  0  0  0  0  0  0
   12.1457   35.5150   30.6135 H   0  0  0  0  0  0  0  0  0  0  0  0
   12.3359   38.3593   34.7446 H   0  0  0  0  0  0  0  0  0  0  0  0
   16.7569   34.1789   32.4618 H   0  0  0  0  0  0  0  0  0  0  0  0
   16.6362   34.5315   37.1414 H   0  0  0  0  0  0  0  0  0  0  0  0
   15.3531   35.7356   37.5138 H   0  0  0  0  0  0  0  0  0  0  0  0
  1  2  2  0
  1  3  1  0
  3  4  1  0
  4  5  1  0
  6  1  1  0
  7  6  1  0
  6  8  1  0
  8  9  1  0
  9 10  2  0
 11  9  1  0
 10 12  1  0
 13 11  2  0
 12 14  2  0
 14 13  1  0
 14 15  1  0
 15 16  1  0
  4 17  2  0
  4 18  1  0
 19 18  1  0
 19 20  1  0
 20 21  1  0
 20 22  1  0
 21 23  1  0
 22 24  1  0
 22 25  1  0
 25 23  1  0
 23 26  1  0
 25 27  1  0
 28 26  1  0
 29 26  1  0
 30 28  2  0
 28 31  1  0
 32 29  2  0
 33 30  1  0
 31 34  2  0
 31 32  1  0
 35 33  2  0
 35 34  1  0
 34 36  1  0
  6 37  1  1
  7 38  1  0
  7 39  1  0
  8 40  1  0
  8 41  1  0
 10 42  1  0
 11 43  1  0
 12 44  1  0
 13 45  1  0
 16 46  1  0
 16 47  1  0
 16 48  1  0
 19 49  1  0
 19 50  1  0
 20 51  1  0
 22 52  1  0
 23 53  1  0
 24 54  1  0
 25 55  1  0
 27 56  1  0
 29 57  1  0
 33 58  1  0
 36 59  1  0
 36 60  1  0
M  CHG  1   5  -1
M  END
>  <EmbedRMS>  (156) 
0.09010621983893628

$$$$

     RDKit          3D

 60 63  0  0  0  0  0  0  0  0999 V2000
   10.2942   43.7720   33.7963 C   0  0  0  0  0  0  0  0  0  0  0  0
   11.4141   43.5897   34.3578 O   0  0  0  0  0  0  0  0  0  0  0  0
    9.3670   42.7360   33.7089 O   0  0  0  0  0  0  0  0  0  0  0  0
    9.8867   41.2362   34.2849 P   0  0  0  0  0  5  0  0  0  0  0  0
   10.3700   41.4675   35.8749 O   0  0  0  0  0  1  0  0  0  0  0  0
    9.9763   45.1031   33.2094 C   0  0  1  0  0  0  0  0  0  0  0  0
   11.0437   46.0546   33.5256 N   0  0  0  0  0  0  0  0  0  0  0  0
    9.7512   45.0004   31.6770 C   0  0  0  0  0  0  0  0  0  0  0  0
   10.9975   45.2170   30.8401 C   0  0  0  0  0  0  0  0  0  0  0  0
   11.0144   46.2134   29.8493 C   0  0  0  0  0  0  0  0  0  0  0  0
   12.1374   44.4155   31.0156 C   0  0  0  0  0  0  0  0  0  0  0  0
   12.1496   46.4093   29.0571 C   0  0  0  0  0  0  0  0  0  0  0  0
   13.2717   44.6114   30.2236 C   0  0  0  0  0  0  0  0  0  0  0  0
   13.2902   45.6057   29.2402 C   0  0  0  0  0  0  0  0  0  0  0  0
   14.4531   45.7623   28.4716 O   0  0  0  0  0  0  0  0  0  0  0  0
   14.6102   46.7311   27.4401 C   0  0  0  0  0  0  0  0  0  0  0  0
    8.8088   40.1934   34.2089 O   0  0  0  0  0  0  0  0  0  0  0  0
   11.2367   40.7956   33.3635 O   0  0  0  0  0  0  0  0  0  0  0  0
   10.9067   40.6814   31.9930 C   0  0  0  0  0  0  0  0  0  0  0  0
   11.5221   39.3833   31.4368 C   0  0  0  0  0  0  0  0  0  0  0  0
   12.7458   39.0873   32.0816 O   0  0  0  0  0  0  0  0  0  0  0  0
   10.6091   38.1868   31.6474 C   0  0  0  0  0  0  0  0  0  0  0  0
   12.9346   37.6805   32.0295 C   0  0  0  0  0  0  0  0  0  0  0  0
    9.6117   38.0838   30.6549 O   0  0  0  0  0  0  0  0  0  0  0  0
   11.5774   37.0110   31.7022 C   0  0  0  0  0  0  0  0  0  0  0  0
   13.4902   37.2165   33.3238 N   0  0  0  0  0  0  0  0  0  0  0  0
   11.6336   36.3220   30.4733 O   0  0  0  0  0  0  0  0  0  0  0  0
   14.4763   36.3266   33.5728 C   0  0  0  0  0  0  0  0  0  0  0  0
   13.1180   37.6306   34.5690 C   0  0  0  0  0  0  0  0  0  0  0  0
   15.2065   35.6135   32.6739 N   0  0  0  0  0  0  0  0  0  0  0  0
   14.6737   36.2272   34.9183 C   0  0  0  0  0  0  0  0  0  0  0  0
   13.8229   37.0452   35.5784 N   0  0  0  0  0  0  0  0  0  0  0  0
   16.1640   34.7592   33.1547 C   0  0  0  0  0  0  0  0  0  0  0  0
   15.6519   35.3491   35.4131 C   0  0  0  0  0  0  0  0  0  0  0  0
   16.3795   34.6309   34.5042 N   0  0  0  0  0  0  0  0  0  0  0  0
   15.9005   35.1932   36.8089 N   0  0  0  0  0  0  0  0  0  0  0  0
    9.0284   45.4508   33.6794 H   0  0  0  0  0  0  0  0  0  0  0  0
   11.0591   46.2026   34.5616 H   0  0  0  0  0  0  0  0  0  0  0  0
   10.7866   46.9816   33.1141 H   0  0  0  0  0  0  0  0  0  0  0  0
    8.9868   45.7601   31.4019 H   0  0  0  0  0  0  0  0  0  0  0  0
    9.3065   44.0179   31.4060 H   0  0  0  0  0  0  0  0  0  0  0  0
   10.1479   46.8422   29.6866 H   0  0  0  0  0  0  0  0  0  0  0  0
   12.1603   43.6487   31.7737 H   0  0  0  0  0  0  0  0  0  0  0  0
   12.1291   47.1862   28.3052 H   0  0  0  0  0  0  0  0  0  0  0  0
   14.1432   43.9873   30.3764 H   0  0  0  0  0  0  0  0  0  0  0  0
   14.5020   47.7544   27.8576 H   0  0  0  0  0  0  0  0  0  0  0  0
   13.8583   46.5627   26.6404 H   0  0  0  0  0  0  0  0  0  0  0  0
   15.6240   46.6320   27.0010 H   0  0  0  0  0  0  0  0  0  0  0  0
   11.3631   41.5355   31.4560 H   0  0  0  0  0  0  0  0  0  0  0  0
    9.8150   40.7053   31.7628 H   0  0  0  0  0  0  0  0  0  0  0  0
   11.7249   39.5239   30.3504 H   0  0  0  0  0  0  0  0  0  0  0  0
   10.1114   38.2676   32.6396 H   0  0  0  0  0  0  0  0  0  0  0  0
   13.6689   37.4606   31.2228 H   0  0  0  0  0  0  0  0  0  0  0  0
   10.0503   38.1063   29.7649 H   0  0  0  0  0  0  0  0  0  0  0  0
   11.2819   36.3095   32.5187 H   0  0  0  0  0  0  0  0  0  0  0  0
   10.8650   35.6935   30.4635 H   0  0  0  0  0  0  0  0  0  0  0  0
   12.3356   38.3580   34.7446 H   0  0  0  0  0  0  0  0  0  0  0  0
   16.7575   34.1787   32.4619 H   0  0  0  0  0  0  0  0  0  0  0  0
   15.3532   35.7355   37.5138 H   0  0  0  0  0  0  0  0  0  0  0  0
   16.6364   34.5315   37.1415 H   0  0  0  0  0  0  0  0  0  0  0  0
  1  2  2  0
  1  3  1  0
  3  4  1  0
  4  5  1  0
  6  1  1  0
  7  6  1  0
  6  8  1  0
  8  9  1  0
  9 10  2  0
 11  9  1  0
 10 12  1  0
 13 11  2  0
 12 14  2  0
 14 13  1  0
 14 15  1  0
 15 16  1  0
  4 17  2  0
  4 18  1  0
 19 18  1  0
 19 20  1  0
 20 21  1  0
 20 22  1  0
 21 23  1  0
 22 24  1  0
 22 25  1  0
 25 23  1  0
 23 26  1  0
 25 27  1  0
 28 26  1  0
 29 26  1  0
 30 28  2  0
 28 31  1  0
 32 29  2  0
 33 30  1  0
 31 34  2  0
 31 32  1  0
 35 33  2  0
 35 34  1  0
 34 36  1  0
  6 37  1  1
  7 38  1  0
  7 39  1  0
  8 40  1  0
  8 41  1  0
 10 42  1  0
 11 43  1  0
 12 44  1  0
 13 45  1  0
 16 46  1  0
 16 47  1  0
 16 48  1  0
 19 49  1  0
 19 50  1  0
 20 51  1  0
 22 52  1  0
 23 53  1  0
 24 54  1  0
 25 55  1  0
 27 56  1  0
 29 57  1  0
 33 58  1  0
 36 59  1  0
 36 60  1  0
M  CHG  1   5  -1
M  END
>  <EmbedRMS>  (157) 
0.08892842181393461

$$$$

     RDKit          3D

 60 63  0  0  0  0  0  0  0  0999 V2000
   10.2879   43.7719   33.8024 C   0  0  0  0  0  0  0  0  0  0  0  0
   11.4129   43.5866   34.3534 O   0  0  0  0  0  0  0  0  0  0  0  0
    9.3633   42.7344   33.7121 O   0  0  0  0  0  0  0  0  0  0  0  0
    9.8852   41.2346   34.2857 P   0  0  0  0  0  5  0  0  0  0  0  0
   10.3686   41.4661   35.8757 O   0  0  0  0  0  1  0  0  0  0  0  0
    9.9689   45.1018   33.2140 C   0  0  1  0  0  0  0  0  0  0  0  0
   11.0575   46.0377   33.5062 N   0  0  0  0  0  0  0  0  0  0  0  0
    9.7795   44.9512   31.6901 C   0  0  0  0  0  0  0  0  0  0  0  0
    9.2583   46.2168   31.0575 C   0  0  0  0  0  0  0  0  0  0  0  0
    7.9034   46.5608   31.1811 C   0  0  0  0  0  0  0  0  0  0  0  0
   10.1242   47.0764   30.3636 C   0  0  0  0  0  0  0  0  0  0  0  0
    7.4188   47.7424   30.6124 C   0  0  0  0  0  0  0  0  0  0  0  0
    9.6393   48.2577   29.7953 C   0  0  0  0  0  0  0  0  0  0  0  0
    8.2876   48.6016   29.9126 C   0  0  0  0  0  0  0  0  0  0  0  0
    7.8507   49.7979   29.3245 O   0  0  0  0  0  0  0  0  0  0  0  0
    6.5082   50.2704   29.3663 C   0  0  0  0  0  0  0  0  0  0  0  0
    8.8079   40.1915   34.2093 O   0  0  0  0  0  0  0  0  0  0  0  0
   11.2365   40.7937   33.3657 O   0  0  0  0  0  0  0  0  0  0  0  0
   10.9125   40.6863   31.9933 C   0  0  0  0  0  0  0  0  0  0  0  0
   11.5158   39.3782   31.4399 C   0  0  0  0  0  0  0  0  0  0  0  0
   12.7465   39.0863   32.0746 O   0  0  0  0  0  0  0  0  0  0  0  0
   10.6043   38.1871   31.6670 C   0  0  0  0  0  0  0  0  0  0  0  0
   12.9343   37.6798   32.0283 C   0  0  0  0  0  0  0  0  0  0  0  0
    9.6377   38.0920   30.6487 O   0  0  0  0  0  0  0  0  0  0  0  0
   11.5760   37.0134   31.7057 C   0  0  0  0  0  0  0  0  0  0  0  0
   13.4909   37.2180   33.3233 N   0  0  0  0  0  0  0  0  0  0  0  0
   11.6234   36.3375   30.4685 O   0  0  0  0  0  0  0  0  0  0  0  0
   14.4764   36.3273   33.5727 C   0  0  0  0  0  0  0  0  0  0  0  0
   13.1182   37.6317   34.5686 C   0  0  0  0  0  0  0  0  0  0  0  0
   15.2065   35.6139   32.6738 N   0  0  0  0  0  0  0  0  0  0  0  0
   14.6735   36.2276   34.9181 C   0  0  0  0  0  0  0  0  0  0  0  0
   13.8227   37.0458   35.5781 N   0  0  0  0  0  0  0  0  0  0  0  0
   16.1637   34.7594   33.1547 C   0  0  0  0  0  0  0  0  0  0  0  0
   15.6516   35.3493   35.4130 C   0  0  0  0  0  0  0  0  0  0  0  0
   16.3792   34.6310   34.5042 N   0  0  0  0  0  0  0  0  0  0  0  0
   15.9002   35.1934   36.8089 N   0  0  0  0  0  0  0  0  0  0  0  0
    9.0244   45.4685   33.6758 H   0  0  0  0  0  0  0  0  0  0  0  0
   10.7940   46.9817   33.1428 H   0  0  0  0  0  0  0  0  0  0  0  0
   11.1201   46.1578   34.5442 H   0  0  0  0  0  0  0  0  0  0  0  0
    9.0539   44.1345   31.4783 H   0  0  0  0  0  0  0  0  0  0  0  0
   10.7434   44.6512   31.2214 H   0  0  0  0  0  0  0  0  0  0  0  0
    7.2226   45.9130   31.7197 H   0  0  0  0  0  0  0  0  0  0  0  0
   11.1753   46.8346   30.2659 H   0  0  0  0  0  0  0  0  0  0  0  0
    6.3695   47.9788   30.7237 H   0  0  0  0  0  0  0  0  0  0  0  0
   10.3181   48.9113   29.2623 H   0  0  0  0  0  0  0  0  0  0  0  0
    6.4465   51.2357   28.8233 H   0  0  0  0  0  0  0  0  0  0  0  0
    6.1934   50.4337   30.4186 H   0  0  0  0  0  0  0  0  0  0  0  0
    5.8312   49.5411   28.8732 H   0  0  0  0  0  0  0  0  0  0  0  0
    9.8221   40.7218   31.7582 H   0  0  0  0  0  0  0  0  0  0  0  0
   11.3835   41.5432   31.4658 H   0  0  0  0  0  0  0  0  0  0  0  0
   11.6981   39.5023   30.3473 H   0  0  0  0  0  0  0  0  0  0  0  0
   10.1090   38.2773   32.6628 H   0  0  0  0  0  0  0  0  0  0  0  0
   13.6670   37.4557   31.2213 H   0  0  0  0  0  0  0  0  0  0  0  0
    8.9778   37.4159   30.9531 H   0  0  0  0  0  0  0  0  0  0  0  0
   11.2860   36.3046   32.5178 H   0  0  0  0  0  0  0  0  0  0  0  0
   10.8690   35.6922   30.4658 H   0  0  0  0  0  0  0  0  0  0  0  0
   12.3356   38.3588   34.7441 H   0  0  0  0  0  0  0  0  0  0  0  0
   16.7571   34.1787   32.4620 H   0  0  0  0  0  0  0  0  0  0  0  0
   15.3530   35.7357   37.5137 H   0  0  0  0  0  0  0  0  0  0  0  0
   16.6361   34.5315   37.1414 H   0  0  0  0  0  0  0  0  0  0  0  0
  1  2  2  0
  1  3  1  0
  3  4  1  0
  4  5  1  0
  6  1  1  0
  7  6  1  0
  6  8  1  0
  8  9  1  0
  9 10  2  0
 11  9  1  0
 10 12  1  0
 13 11  2  0
 12 14  2  0
 14 13  1  0
 14 15  1  0
 15 16  1  0
  4 17  2  0
  4 18  1  0
 19 18  1  0
 19 20  1  0
 20 21  1  0
 20 22  1  0
 21 23  1  0
 22 24  1  0
 22 25  1  0
 25 23  1  0
 23 26  1  0
 25 27  1  0
 28 26  1  0
 29 26  1  0
 30 28  2  0
 28 31  1  0
 32 29  2  0
 33 30  1  0
 31 34  2  0
 31 32  1  0
 35 33  2  0
 35 34  1  0
 34 36  1  0
  6 37  1  1
  7 38  1  0
  7 39  1  0
  8 40  1  0
  8 41  1  0
 10 42  1  0
 11 43  1  0
 12 44  1  0
 13 45  1  0
 16 46  1  0
 16 47  1  0
 16 48  1  0
 19 49  1  0
 19 50  1  0
 20 51  1  0
 22 52  1  0
 23 53  1  0
 24 54  1  0
 25 55  1  0
 27 56  1  0
 29 57  1  0
 33 58  1  0
 36 59  1  0
 36 60  1  0
M  CHG  1   5  -1
M  END
>  <EmbedRMS>  (158) 
0.08894119689203504

$$$$

     RDKit          3D

 60 63  0  0  0  0  0  0  0  0999 V2000
   10.2895   43.7707   33.7895 C   0  0  0  0  0  0  0  0  0  0  0  0
   11.4145   43.5857   34.3411 O   0  0  0  0  0  0  0  0  0  0  0  0
    9.3634   42.7338   33.7104 O   0  0  0  0  0  0  0  0  0  0  0  0
    9.8845   41.2351   34.2874 P   0  0  0  0  0  5  0  0  0  0  0  0
   10.3668   41.4684   35.8772 O   0  0  0  0  0  1  0  0  0  0  0  0
    9.9608   45.1136   33.2263 C   0  0  1  0  0  0  0  0  0  0  0  0
   11.0589   46.0382   33.5133 N   0  0  0  0  0  0  0  0  0  0  0  0
    9.7330   45.0496   31.6983 C   0  0  0  0  0  0  0  0  0  0  0  0
    8.5469   44.1999   31.3062 C   0  0  0  0  0  0  0  0  0  0  0  0
    8.7265   43.0566   30.5122 C   0  0  0  0  0  0  0  0  0  0  0  0
    7.2509   44.5483   31.7192 C   0  0  0  0  0  0  0  0  0  0  0  0
    7.6370   42.2493   30.1745 C   0  0  0  0  0  0  0  0  0  0  0  0
    6.1606   43.7428   31.3781 C   0  0  0  0  0  0  0  0  0  0  0  0
    6.3424   42.5856   30.6122 C   0  0  0  0  0  0  0  0  0  0  0  0
    5.2186   41.8033   30.3077 O   0  0  0  0  0  0  0  0  0  0  0  0
    5.2609   40.5968   29.5528 C   0  0  0  0  0  0  0  0  0  0  0  0
    8.8071   40.1922   34.2104 O   0  0  0  0  0  0  0  0  0  0  0  0
   11.2365   40.7906   33.3713 O   0  0  0  0  0  0  0  0  0  0  0  0
   10.9149   40.6879   31.9991 C   0  0  0  0  0  0  0  0  0  0  0  0
   11.5269   39.3897   31.4389 C   0  0  0  0  0  0  0  0  0  0  0  0
   12.7509   39.0914   32.0845 O   0  0  0  0  0  0  0  0  0  0  0  0
   10.6120   38.1913   31.6455 C   0  0  0  0  0  0  0  0  0  0  0  0
   12.9429   37.6851   32.0296 C   0  0  0  0  0  0  0  0  0  0  0  0
    9.6068   38.0864   30.6604 O   0  0  0  0  0  0  0  0  0  0  0  0
   11.5844   37.0185   31.6878 C   0  0  0  0  0  0  0  0  0  0  0  0
   13.4897   37.2160   33.3250 N   0  0  0  0  0  0  0  0  0  0  0  0
   11.6200   36.3067   30.4688 O   0  0  0  0  0  0  0  0  0  0  0  0
   14.4758   36.3262   33.5739 C   0  0  0  0  0  0  0  0  0  0  0  0
   13.1175   37.6306   34.5699 C   0  0  0  0  0  0  0  0  0  0  0  0
   15.2065   35.6138   32.6746 N   0  0  0  0  0  0  0  0  0  0  0  0
   14.6731   36.2267   34.9191 C   0  0  0  0  0  0  0  0  0  0  0  0
   13.8224   37.0449   35.5792 N   0  0  0  0  0  0  0  0  0  0  0  0
   16.1640   34.7595   33.1551 C   0  0  0  0  0  0  0  0  0  0  0  0
   15.6518   35.3489   35.4136 C   0  0  0  0  0  0  0  0  0  0  0  0
   16.3795   34.6310   34.5046 N   0  0  0  0  0  0  0  0  0  0  0  0
   15.9006   35.1931   36.8094 N   0  0  0  0  0  0  0  0  0  0  0  0
    9.0384   45.4861   33.7250 H   0  0  0  0  0  0  0  0  0  0  0  0
   10.8130   46.9782   33.1254 H   0  0  0  0  0  0  0  0  0  0  0  0
   11.1151   46.1740   34.5498 H   0  0  0  0  0  0  0  0  0  0  0  0
   10.6609   44.6793   31.2080 H   0  0  0  0  0  0  0  0  0  0  0  0
    9.5547   46.0765   31.3116 H   0  0  0  0  0  0  0  0  0  0  0  0
    9.7118   42.7844   30.1570 H   0  0  0  0  0  0  0  0  0  0  0  0
    7.0840   45.4400   32.3100 H   0  0  0  0  0  0  0  0  0  0  0  0
    7.8128   41.3671   29.5742 H   0  0  0  0  0  0  0  0  0  0  0  0
    5.1685   44.0177   31.7131 H   0  0  0  0  0  0  0  0  0  0  0  0
    5.9059   39.8499   30.0624 H   0  0  0  0  0  0  0  0  0  0  0  0
    5.6446   40.7992   28.5305 H   0  0  0  0  0  0  0  0  0  0  0  0
    4.2347   40.1837   29.4717 H   0  0  0  0  0  0  0  0  0  0  0  0
    9.8247   40.7095   31.7655 H   0  0  0  0  0  0  0  0  0  0  0  0
   11.3818   41.5505   31.4782 H   0  0  0  0  0  0  0  0  0  0  0  0
   11.7312   39.5354   30.3537 H   0  0  0  0  0  0  0  0  0  0  0  0
   10.1211   38.2671   32.6415 H   0  0  0  0  0  0  0  0  0  0  0  0
   13.6882   37.4708   31.2320 H   0  0  0  0  0  0  0  0  0  0  0  0
   10.0249   38.1798   29.7659 H   0  0  0  0  0  0  0  0  0  0  0  0
   11.2796   36.3119   32.4911 H   0  0  0  0  0  0  0  0  0  0  0  0
   11.9859   36.9111   29.7710 H   0  0  0  0  0  0  0  0  0  0  0  0
   12.3364   38.3594   34.7453 H   0  0  0  0  0  0  0  0  0  0  0  0
   16.7577   34.1794   32.4622 H   0  0  0  0  0  0  0  0  0  0  0  0
   16.6369   34.5316   37.1418 H   0  0  0  0  0  0  0  0  0  0  0  0
   15.3532   35.7351   37.5143 H   0  0  0  0  0  0  0  0  0  0  0  0
  1  2  2  0
  1  3  1  0
  3  4  1  0
  4  5  1  0
  6  1  1  0
  7  6  1  0
  6  8  1  0
  8  9  1  0
  9 10  2  0
 11  9  1  0
 10 12  1  0
 13 11  2  0
 12 14  2  0
 14 13  1  0
 14 15  1  0
 15 16  1  0
  4 17  2  0
  4 18  1  0
 19 18  1  0
 19 20  1  0
 20 21  1  0
 20 22  1  0
 21 23  1  0
 22 24  1  0
 22 25  1  0
 25 23  1  0
 23 26  1  0
 25 27  1  0
 28 26  1  0
 29 26  1  0
 30 28  2  0
 28 31  1  0
 32 29  2  0
 33 30  1  0
 31 34  2  0
 31 32  1  0
 35 33  2  0
 35 34  1  0
 34 36  1  0
  6 37  1  1
  7 38  1  0
  7 39  1  0
  8 40  1  0
  8 41  1  0
 10 42  1  0
 11 43  1  0
 12 44  1  0
 13 45  1  0
 16 46  1  0
 16 47  1  0
 16 48  1  0
 19 49  1  0
 19 50  1  0
 20 51  1  0
 22 52  1  0
 23 53  1  0
 24 54  1  0
 25 55  1  0
 27 56  1  0
 29 57  1  0
 33 58  1  0
 36 59  1  0
 36 60  1  0
M  CHG  1   5  -1
M  END
>  <EmbedRMS>  (159) 
0.08764225788071214

$$$$

     RDKit          3D

 60 63  0  0  0  0  0  0  0  0999 V2000
   10.2920   43.7670   33.7922 C   0  0  0  0  0  0  0  0  0  0  0  0
   11.4134   43.5793   34.3495 O   0  0  0  0  0  0  0  0  0  0  0  0
    9.3641   42.7325   33.7094 O   0  0  0  0  0  0  0  0  0  0  0  0
    9.8836   41.2336   34.2869 P   0  0  0  0  0  5  0  0  0  0  0  0
   10.3658   41.4669   35.8769 O   0  0  0  0  0  1  0  0  0  0  0  0
    9.9651   45.1144   33.2347 C   0  0  1  0  0  0  0  0  0  0  0  0
   11.0570   46.0537   33.4984 N   0  0  0  0  0  0  0  0  0  0  0  0
    9.6966   45.0671   31.7157 C   0  0  0  0  0  0  0  0  0  0  0  0
    8.4623   44.2739   31.3575 C   0  0  0  0  0  0  0  0  0  0  0  0
    7.1915   44.7120   31.7632 C   0  0  0  0  0  0  0  0  0  0  0  0
    8.5711   43.0918   30.6087 C   0  0  0  0  0  0  0  0  0  0  0  0
    6.0522   43.9638   31.4520 C   0  0  0  0  0  0  0  0  0  0  0  0
    7.4327   42.3426   30.3005 C   0  0  0  0  0  0  0  0  0  0  0  0
    6.1670   42.7668   30.7198 C   0  0  0  0  0  0  0  0  0  0  0  0
    5.0558   41.9775   30.3884 O   0  0  0  0  0  0  0  0  0  0  0  0
    3.7141   42.2857   30.7519 C   0  0  0  0  0  0  0  0  0  0  0  0
    8.8060   40.1911   34.2097 O   0  0  0  0  0  0  0  0  0  0  0  0
   11.2358   40.7902   33.3706 O   0  0  0  0  0  0  0  0  0  0  0  0
   10.9139   40.6877   31.9984 C   0  0  0  0  0  0  0  0  0  0  0  0
   11.5267   39.3896   31.4385 C   0  0  0  0  0  0  0  0  0  0  0  0
   12.7507   39.0916   32.0845 O   0  0  0  0  0  0  0  0  0  0  0  0
   10.6122   38.1911   31.6453 C   0  0  0  0  0  0  0  0  0  0  0  0
   12.9429   37.6853   32.0296 C   0  0  0  0  0  0  0  0  0  0  0  0
    9.6070   38.0859   30.6602 O   0  0  0  0  0  0  0  0  0  0  0  0
   11.5846   37.0184   31.6877 C   0  0  0  0  0  0  0  0  0  0  0  0
   13.4898   37.2162   33.3250 N   0  0  0  0  0  0  0  0  0  0  0  0
   11.6203   36.3065   30.4689 O   0  0  0  0  0  0  0  0  0  0  0  0
   14.4759   36.3263   33.5739 C   0  0  0  0  0  0  0  0  0  0  0  0
   13.1175   37.6306   34.5699 C   0  0  0  0  0  0  0  0  0  0  0  0
   15.2065   35.6138   32.6746 N   0  0  0  0  0  0  0  0  0  0  0  0
   14.6731   36.2267   34.9191 C   0  0  0  0  0  0  0  0  0  0  0  0
   13.8224   37.0450   35.5792 N   0  0  0  0  0  0  0  0  0  0  0  0
   16.1640   34.7596   33.1551 C   0  0  0  0  0  0  0  0  0  0  0  0
   15.6518   35.3489   35.4136 C   0  0  0  0  0  0  0  0  0  0  0  0
   16.3795   34.6310   34.5046 N   0  0  0  0  0  0  0  0  0  0  0  0
   15.9006   35.1931   36.8094 N   0  0  0  0  0  0  0  0  0  0  0  0
    9.0564   45.4899   33.7532 H   0  0  0  0  0  0  0  0  0  0  0  0
   11.1922   46.1512   34.5317 H   0  0  0  0  0  0  0  0  0  0  0  0
   11.9488   45.7006   33.0785 H   0  0  0  0  0  0  0  0  0  0  0  0
    9.5585   46.1052   31.3418 H   0  0  0  0  0  0  0  0  0  0  0  0
   10.5912   44.6561   31.1967 H   0  0  0  0  0  0  0  0  0  0  0  0
    7.0827   45.6317   32.3243 H   0  0  0  0  0  0  0  0  0  0  0  0
    9.5371   42.7470   30.2641 H   0  0  0  0  0  0  0  0  0  0  0  0
    5.0887   44.3242   31.7854 H   0  0  0  0  0  0  0  0  0  0  0  0
    7.5347   41.4270   29.7317 H   0  0  0  0  0  0  0  0  0  0  0  0
    3.4116   43.2572   30.3072 H   0  0  0  0  0  0  0  0  0  0  0  0
    3.6175   42.3245   31.8576 H   0  0  0  0  0  0  0  0  0  0  0  0
    3.0422   41.4929   30.3641 H   0  0  0  0  0  0  0  0  0  0  0  0
   11.3785   41.5514   31.4767 H   0  0  0  0  0  0  0  0  0  0  0  0
    9.8233   40.7086   31.7649 H   0  0  0  0  0  0  0  0  0  0  0  0
   11.7312   39.5352   30.3533 H   0  0  0  0  0  0  0  0  0  0  0  0
   10.1211   38.2669   32.6413 H   0  0  0  0  0  0  0  0  0  0  0  0
   13.6883   37.4711   31.2320 H   0  0  0  0  0  0  0  0  0  0  0  0
   10.0253   38.1781   29.7657 H   0  0  0  0  0  0  0  0  0  0  0  0
   11.2798   36.3119   32.4911 H   0  0  0  0  0  0  0  0  0  0  0  0
   11.9866   36.9107   29.7711 H   0  0  0  0  0  0  0  0  0  0  0  0
   12.3365   38.3595   34.7453 H   0  0  0  0  0  0  0  0  0  0  0  0
   16.7577   34.1794   32.4622 H   0  0  0  0  0  0  0  0  0  0  0  0
   15.3532   35.7351   37.5143 H   0  0  0  0  0  0  0  0  0  0  0  0
   16.6368   34.5316   37.1418 H   0  0  0  0  0  0  0  0  0  0  0  0
  1  2  2  0
  1  3  1  0
  3  4  1  0
  4  5  1  0
  6  1  1  0
  7  6  1  0
  6  8  1  0
  8  9  1  0
  9 10  2  0
 11  9  1  0
 10 12  1  0
 13 11  2  0
 12 14  2  0
 14 13  1  0
 14 15  1  0
 15 16  1  0
  4 17  2  0
  4 18  1  0
 19 18  1  0
 19 20  1  0
 20 21  1  0
 20 22  1  0
 21 23  1  0
 22 24  1  0
 22 25  1  0
 25 23  1  0
 23 26  1  0
 25 27  1  0
 28 26  1  0
 29 26  1  0
 30 28  2  0
 28 31  1  0
 32 29  2  0
 33 30  1  0
 31 34  2  0
 31 32  1  0
 35 33  2  0
 35 34  1  0
 34 36  1  0
  6 37  1  1
  7 38  1  0
  7 39  1  0
  8 40  1  0
  8 41  1  0
 10 42  1  0
 11 43  1  0
 12 44  1  0
 13 45  1  0
 16 46  1  0
 16 47  1  0
 16 48  1  0
 19 49  1  0
 19 50  1  0
 20 51  1  0
 22 52  1  0
 23 53  1  0
 24 54  1  0
 25 55  1  0
 27 56  1  0
 29 57  1  0
 33 58  1  0
 36 59  1  0
 36 60  1  0
M  CHG  1   5  -1
M  END
>  <EmbedRMS>  (160) 
0.08799634180221669

$$$$

     RDKit          3D

 60 63  0  0  0  0  0  0  0  0999 V2000
   10.3002   43.7681   33.7923 C   0  0  0  0  0  0  0  0  0  0  0  0
   11.4163   43.5823   34.3592 O   0  0  0  0  0  0  0  0  0  0  0  0
    9.3696   42.7351   33.7054 O   0  0  0  0  0  0  0  0  0  0  0  0
    9.8860   41.2352   34.2842 P   0  0  0  0  0  5  0  0  0  0  0  0
   10.3689   41.4674   35.8743 O   0  0  0  0  0  1  0  0  0  0  0  0
    9.9797   45.1071   33.2188 C   0  0  1  0  0  0  0  0  0  0  0  0
   11.0351   46.0792   33.5236 N   0  0  0  0  0  0  0  0  0  0  0  0
    9.6917   45.0372   31.6958 C   0  0  0  0  0  0  0  0  0  0  0  0
   10.8941   45.2687   30.8024 C   0  0  0  0  0  0  0  0  0  0  0  0
   12.0177   44.4299   30.8716 C   0  0  0  0  0  0  0  0  0  0  0  0
   10.8830   46.3122   29.8613 C   0  0  0  0  0  0  0  0  0  0  0  0
   13.1097   44.6334   30.0241 C   0  0  0  0  0  0  0  0  0  0  0  0
   11.9752   46.5155   29.0123 C   0  0  0  0  0  0  0  0  0  0  0  0
   13.0999   45.6731   29.0886 C   0  0  0  0  0  0  0  0  0  0  0  0
   14.2200   45.8354   28.2599 O   0  0  0  0  0  0  0  0  0  0  0  0
   14.3452   46.8486   27.2673 C   0  0  0  0  0  0  0  0  0  0  0  0
    8.8074   40.1933   34.2083 O   0  0  0  0  0  0  0  0  0  0  0  0
   11.2360   40.7934   33.3634 O   0  0  0  0  0  0  0  0  0  0  0  0
   10.9051   40.6779   31.9932 C   0  0  0  0  0  0  0  0  0  0  0  0
   11.5216   39.3813   31.4369 C   0  0  0  0  0  0  0  0  0  0  0  0
   12.7454   39.0864   32.0815 O   0  0  0  0  0  0  0  0  0  0  0  0
   10.6090   38.1850   31.6475 C   0  0  0  0  0  0  0  0  0  0  0  0
   12.9346   37.6798   32.0295 C   0  0  0  0  0  0  0  0  0  0  0  0
    9.6115   38.0824   30.6551 O   0  0  0  0  0  0  0  0  0  0  0  0
   11.5776   37.0098   31.7021 C   0  0  0  0  0  0  0  0  0  0  0  0
   13.4902   37.2161   33.3238 N   0  0  0  0  0  0  0  0  0  0  0  0
   11.6339   36.3213   30.4729 O   0  0  0  0  0  0  0  0  0  0  0  0
   14.4764   36.3264   33.5729 C   0  0  0  0  0  0  0  0  0  0  0  0
   13.1180   37.6305   34.5690 C   0  0  0  0  0  0  0  0  0  0  0  0
   15.2066   35.6134   32.6739 N   0  0  0  0  0  0  0  0  0  0  0  0
   14.6737   36.2271   34.9183 C   0  0  0  0  0  0  0  0  0  0  0  0
   13.8229   37.0452   35.5785 N   0  0  0  0  0  0  0  0  0  0  0  0
   16.1641   34.7591   33.1547 C   0  0  0  0  0  0  0  0  0  0  0  0
   15.6520   35.3490   35.4131 C   0  0  0  0  0  0  0  0  0  0  0  0
   16.3796   34.6308   34.5043 N   0  0  0  0  0  0  0  0  0  0  0  0
   15.9006   35.1932   36.8090 N   0  0  0  0  0  0  0  0  0  0  0  0
    9.0440   45.4461   33.7170 H   0  0  0  0  0  0  0  0  0  0  0  0
   11.9769   45.7175   33.2491 H   0  0  0  0  0  0  0  0  0  0  0  0
   11.0530   46.2454   34.5566 H   0  0  0  0  0  0  0  0  0  0  0  0
    9.2345   44.0597   31.4279 H   0  0  0  0  0  0  0  0  0  0  0  0
    8.9146   45.7999   31.4681 H   0  0  0  0  0  0  0  0  0  0  0  0
   12.0648   43.6382   31.6020 H   0  0  0  0  0  0  0  0  0  0  0  0
   10.0272   46.9710   29.7803 H   0  0  0  0  0  0  0  0  0  0  0  0
   13.9711   43.9817   30.0979 H   0  0  0  0  0  0  0  0  0  0  0  0
   11.9338   47.3283   28.3003 H   0  0  0  0  0  0  0  0  0  0  0  0
   15.3282   46.7436   26.7641 H   0  0  0  0  0  0  0  0  0  0  0  0
   14.2921   47.8530   27.7381 H   0  0  0  0  0  0  0  0  0  0  0  0
   13.5431   46.7396   26.5071 H   0  0  0  0  0  0  0  0  0  0  0  0
   11.3615   41.5289   31.4546 H   0  0  0  0  0  0  0  0  0  0  0  0
    9.8134   40.7015   31.7630 H   0  0  0  0  0  0  0  0  0  0  0  0
   11.7241   39.5220   30.3504 H   0  0  0  0  0  0  0  0  0  0  0  0
   10.1113   38.2655   32.6399 H   0  0  0  0  0  0  0  0  0  0  0  0
   13.6691   37.4601   31.2229 H   0  0  0  0  0  0  0  0  0  0  0  0
   10.0500   38.1044   29.7650 H   0  0  0  0  0  0  0  0  0  0  0  0
   11.2825   36.3079   32.5183 H   0  0  0  0  0  0  0  0  0  0  0  0
   10.8658   35.6924   30.4630 H   0  0  0  0  0  0  0  0  0  0  0  0
   12.3356   38.3578   34.7445 H   0  0  0  0  0  0  0  0  0  0  0  0
   16.7575   34.1786   32.4620 H   0  0  0  0  0  0  0  0  0  0  0  0
   15.3532   35.7355   37.5138 H   0  0  0  0  0  0  0  0  0  0  0  0
   16.6365   34.5315   37.1416 H   0  0  0  0  0  0  0  0  0  0  0  0
  1  2  2  0
  1  3  1  0
  3  4  1  0
  4  5  1  0
  6  1  1  0
  7  6  1  0
  6  8  1  0
  8  9  1  0
  9 10  2  0
 11  9  1  0
 10 12  1  0
 13 11  2  0
 12 14  2  0
 14 13  1  0
 14 15  1  0
 15 16  1  0
  4 17  2  0
  4 18  1  0
 19 18  1  0
 19 20  1  0
 20 21  1  0
 20 22  1  0
 21 23  1  0
 22 24  1  0
 22 25  1  0
 25 23  1  0
 23 26  1  0
 25 27  1  0
 28 26  1  0
 29 26  1  0
 30 28  2  0
 28 31  1  0
 32 29  2  0
 33 30  1  0
 31 34  2  0
 31 32  1  0
 35 33  2  0
 35 34  1  0
 34 36  1  0
  6 37  1  1
  7 38  1  0
  7 39  1  0
  8 40  1  0
  8 41  1  0
 10 42  1  0
 11 43  1  0
 12 44  1  0
 13 45  1  0
 16 46  1  0
 16 47  1  0
 16 48  1  0
 19 49  1  0
 19 50  1  0
 20 51  1  0
 22 52  1  0
 23 53  1  0
 24 54  1  0
 25 55  1  0
 27 56  1  0
 29 57  1  0
 33 58  1  0
 36 59  1  0
 36 60  1  0
M  CHG  1   5  -1
M  END
>  <EmbedRMS>  (161) 
0.09030843159228827

$$$$

     RDKit          3D

 60 63  0  0  0  0  0  0  0  0999 V2000
   10.2896   43.7707   33.7895 C   0  0  0  0  0  0  0  0  0  0  0  0
   11.4145   43.5857   34.3411 O   0  0  0  0  0  0  0  0  0  0  0  0
    9.3636   42.7337   33.7101 O   0  0  0  0  0  0  0  0  0  0  0  0
    9.8847   41.2349   34.2868 P   0  0  0  0  0  5  0  0  0  0  0  0
   10.3672   41.4682   35.8766 O   0  0  0  0  0  1  0  0  0  0  0  0
    9.9608   45.1137   33.2266 C   0  0  1  0  0  0  0  0  0  0  0  0
   11.0591   46.0381   33.5132 N   0  0  0  0  0  0  0  0  0  0  0  0
    9.7321   45.0497   31.6987 C   0  0  0  0  0  0  0  0  0  0  0  0
    8.5443   44.2020   31.3076 C   0  0  0  0  0  0  0  0  0  0  0  0
    8.7216   43.0571   30.5153 C   0  0  0  0  0  0  0  0  0  0  0  0
    7.2490   44.5537   31.7201 C   0  0  0  0  0  0  0  0  0  0  0  0
    7.6304   42.2518   30.1785 C   0  0  0  0  0  0  0  0  0  0  0  0
    6.1570   43.7502   31.3798 C   0  0  0  0  0  0  0  0  0  0  0  0
    6.3364   42.5916   30.6155 C   0  0  0  0  0  0  0  0  0  0  0  0
    5.2109   41.8115   30.3117 O   0  0  0  0  0  0  0  0  0  0  0  0
    5.2505   40.6041   29.5579 C   0  0  0  0  0  0  0  0  0  0  0  0
    8.8071   40.1922   34.2102 O   0  0  0  0  0  0  0  0  0  0  0  0
   11.2366   40.7901   33.3703 O   0  0  0  0  0  0  0  0  0  0  0  0
   10.9147   40.6862   31.9980 C   0  0  0  0  0  0  0  0  0  0  0  0
   11.5260   39.3869   31.4380 C   0  0  0  0  0  0  0  0  0  0  0  0
   12.7493   39.0891   32.0825 O   0  0  0  0  0  0  0  0  0  0  0  0
   10.6122   38.1890   31.6464 C   0  0  0  0  0  0  0  0  0  0  0  0
   12.9373   37.6826   32.0302 C   0  0  0  0  0  0  0  0  0  0  0  0
    9.6149   38.0844   30.6539 O   0  0  0  0  0  0  0  0  0  0  0  0
   11.5793   37.0135   31.7012 C   0  0  0  0  0  0  0  0  0  0  0  0
   13.4905   37.2167   33.3243 N   0  0  0  0  0  0  0  0  0  0  0  0
   11.6215   36.3256   30.4721 O   0  0  0  0  0  0  0  0  0  0  0  0
   14.4763   36.3265   33.5731 C   0  0  0  0  0  0  0  0  0  0  0  0
   13.1181   37.6307   34.5694 C   0  0  0  0  0  0  0  0  0  0  0  0
   15.2065   35.6136   32.6740 N   0  0  0  0  0  0  0  0  0  0  0  0
   14.6736   36.2269   34.9185 C   0  0  0  0  0  0  0  0  0  0  0  0
   13.8229   37.0450   35.5788 N   0  0  0  0  0  0  0  0  0  0  0  0
   16.1639   34.7593   33.1547 C   0  0  0  0  0  0  0  0  0  0  0  0
   15.6519   35.3489   35.4132 C   0  0  0  0  0  0  0  0  0  0  0  0
   16.3795   34.6308   34.5042 N   0  0  0  0  0  0  0  0  0  0  0  0
   15.9006   35.1931   36.8090 N   0  0  0  0  0  0  0  0  0  0  0  0
    9.0386   45.4862   33.7258 H   0  0  0  0  0  0  0  0  0  0  0  0
   10.8130   46.9782   33.1256 H   0  0  0  0  0  0  0  0  0  0  0  0
   11.1159   46.1738   34.5497 H   0  0  0  0  0  0  0  0  0  0  0  0
    9.5553   46.0769   31.3119 H   0  0  0  0  0  0  0  0  0  0  0  0
   10.6591   44.6778   31.2079 H   0  0  0  0  0  0  0  0  0  0  0  0
    9.7063   42.7823   30.1607 H   0  0  0  0  0  0  0  0  0  0  0  0
    7.0840   45.4466   32.3097 H   0  0  0  0  0  0  0  0  0  0  0  0
    7.8043   41.3684   29.5794 H   0  0  0  0  0  0  0  0  0  0  0  0
    5.1655   44.0278   31.7143 H   0  0  0  0  0  0  0  0  0  0  0  0
    5.6348   40.8047   28.5355 H   0  0  0  0  0  0  0  0  0  0  0  0
    5.8938   39.8563   30.0683 H   0  0  0  0  0  0  0  0  0  0  0  0
    4.2234   40.1933   29.4770 H   0  0  0  0  0  0  0  0  0  0  0  0
    9.8244   40.7084   31.7647 H   0  0  0  0  0  0  0  0  0  0  0  0
   11.3819   41.5482   31.4763 H   0  0  0  0  0  0  0  0  0  0  0  0
   11.7284   39.5302   30.3520 H   0  0  0  0  0  0  0  0  0  0  0  0
   10.1136   38.2707   32.6382 H   0  0  0  0  0  0  0  0  0  0  0  0
   13.6726   37.4637   31.2241 H   0  0  0  0  0  0  0  0  0  0  0  0
   10.0532   38.1121   29.7639 H   0  0  0  0  0  0  0  0  0  0  0  0
   11.2646   36.3130   32.5102 H   0  0  0  0  0  0  0  0  0  0  0  0
   12.1550   35.5036   30.6307 H   0  0  0  0  0  0  0  0  0  0  0  0
   12.3361   38.3584   34.7450 H   0  0  0  0  0  0  0  0  0  0  0  0
   16.7574   34.1788   32.4619 H   0  0  0  0  0  0  0  0  0  0  0  0
   16.6367   34.5314   37.1415 H   0  0  0  0  0  0  0  0  0  0  0  0
   15.3533   35.7353   37.5139 H   0  0  0  0  0  0  0  0  0  0  0  0
  1  2  2  0
  1  3  1  0
  3  4  1  0
  4  5  1  0
  6  1  1  0
  7  6  1  0
  6  8  1  0
  8  9  1  0
  9 10  2  0
 11  9  1  0
 10 12  1  0
 13 11  2  0
 12 14  2  0
 14 13  1  0
 14 15  1  0
 15 16  1  0
  4 17  2  0
  4 18  1  0
 19 18  1  0
 19 20  1  0
 20 21  1  0
 20 22  1  0
 21 23  1  0
 22 24  1  0
 22 25  1  0
 25 23  1  0
 23 26  1  0
 25 27  1  0
 28 26  1  0
 29 26  1  0
 30 28  2  0
 28 31  1  0
 32 29  2  0
 33 30  1  0
 31 34  2  0
 31 32  1  0
 35 33  2  0
 35 34  1  0
 34 36  1  0
  6 37  1  1
  7 38  1  0
  7 39  1  0
  8 40  1  0
  8 41  1  0
 10 42  1  0
 11 43  1  0
 12 44  1  0
 13 45  1  0
 16 46  1  0
 16 47  1  0
 16 48  1  0
 19 49  1  0
 19 50  1  0
 20 51  1  0
 22 52  1  0
 23 53  1  0
 24 54  1  0
 25 55  1  0
 27 56  1  0
 29 57  1  0
 33 58  1  0
 36 59  1  0
 36 60  1  0
M  CHG  1   5  -1
M  END
>  <EmbedRMS>  (162) 
0.08854521874797831

$$$$

     RDKit          3D

 60 63  0  0  0  0  0  0  0  0999 V2000
   10.2876   43.7723   33.7999 C   0  0  0  0  0  0  0  0  0  0  0  0
   11.4101   43.5905   34.3570 O   0  0  0  0  0  0  0  0  0  0  0  0
    9.3642   42.7338   33.7094 O   0  0  0  0  0  0  0  0  0  0  0  0
    9.8855   41.2350   34.2863 P   0  0  0  0  0  5  0  0  0  0  0  0
   10.3672   41.4675   35.8766 O   0  0  0  0  0  1  0  0  0  0  0  0
    9.9623   45.1042   33.2247 C   0  0  1  0  0  0  0  0  0  0  0  0
   11.0638   46.0310   33.4993 N   0  0  0  0  0  0  0  0  0  0  0  0
    9.6879   44.9759   31.7098 C   0  0  0  0  0  0  0  0  0  0  0  0
    9.2408   46.2842   31.1097 C   0  0  0  0  0  0  0  0  0  0  0  0
    7.9159   46.7179   31.2702 C   0  0  0  0  0  0  0  0  0  0  0  0
   10.1511   47.0989   30.4188 C   0  0  0  0  0  0  0  0  0  0  0  0
    7.5031   47.9424   30.7367 C   0  0  0  0  0  0  0  0  0  0  0  0
    9.7380   48.3231   29.8859 C   0  0  0  0  0  0  0  0  0  0  0  0
    8.4155   48.7557   30.0376 C   0  0  0  0  0  0  0  0  0  0  0  0
    8.0509   49.9921   29.4842 O   0  0  0  0  0  0  0  0  0  0  0  0
    6.7451   50.5542   29.5633 C   0  0  0  0  0  0  0  0  0  0  0  0
    8.8086   40.1914   34.2090 O   0  0  0  0  0  0  0  0  0  0  0  0
   11.2379   40.7936   33.3693 O   0  0  0  0  0  0  0  0  0  0  0  0
   10.9175   40.6917   31.9962 C   0  0  0  0  0  0  0  0  0  0  0  0
   11.5169   39.3831   31.4416 C   0  0  0  0  0  0  0  0  0  0  0  0
   12.7489   39.0899   32.0761 O   0  0  0  0  0  0  0  0  0  0  0  0
   10.6033   38.1903   31.6659 C   0  0  0  0  0  0  0  0  0  0  0  0
   12.9399   37.6840   32.0277 C   0  0  0  0  0  0  0  0  0  0  0  0
    9.6375   38.0788   30.6473 O   0  0  0  0  0  0  0  0  0  0  0  0
   11.5802   37.0208   31.6937 C   0  0  0  0  0  0  0  0  0  0  0  0
   13.4901   37.2180   33.3237 N   0  0  0  0  0  0  0  0  0  0  0  0
   11.6118   36.3196   30.4681 O   0  0  0  0  0  0  0  0  0  0  0  0
   14.4758   36.3273   33.5730 C   0  0  0  0  0  0  0  0  0  0  0  0
   13.1176   37.6319   34.5688 C   0  0  0  0  0  0  0  0  0  0  0  0
   15.2063   35.6143   32.6741 N   0  0  0  0  0  0  0  0  0  0  0  0
   14.6729   36.2274   34.9184 C   0  0  0  0  0  0  0  0  0  0  0  0
   13.8221   37.0458   35.5783 N   0  0  0  0  0  0  0  0  0  0  0  0
   16.1636   34.7597   33.1548 C   0  0  0  0  0  0  0  0  0  0  0  0
   15.6513   35.3493   35.4132 C   0  0  0  0  0  0  0  0  0  0  0  0
   16.3790   34.6312   34.5043 N   0  0  0  0  0  0  0  0  0  0  0  0
   15.9001   35.1935   36.8090 N   0  0  0  0  0  0  0  0  0  0  0  0
    9.0442   45.4724   33.7343 H   0  0  0  0  0  0  0  0  0  0  0  0
   11.8658   45.8304   32.8571 H   0  0  0  0  0  0  0  0  0  0  0  0
   10.7421   47.0072   33.3067 H   0  0  0  0  0  0  0  0  0  0  0  0
    8.8906   44.2193   31.5377 H   0  0  0  0  0  0  0  0  0  0  0  0
   10.5976   44.6018   31.1892 H   0  0  0  0  0  0  0  0  0  0  0  0
    7.2031   46.1070   31.8105 H   0  0  0  0  0  0  0  0  0  0  0  0
   11.1814   46.7885   30.2959 H   0  0  0  0  0  0  0  0  0  0  0  0
    6.4750   48.2478   30.8752 H   0  0  0  0  0  0  0  0  0  0  0  0
   10.4502   48.9411   29.3539 H   0  0  0  0  0  0  0  0  0  0  0  0
    6.0103   49.8840   29.0689 H   0  0  0  0  0  0  0  0  0  0  0  0
    6.4622   50.7149   30.6251 H   0  0  0  0  0  0  0  0  0  0  0  0
    6.7396   51.5333   29.0421 H   0  0  0  0  0  0  0  0  0  0  0  0
   11.3967   41.5469   31.4733 H   0  0  0  0  0  0  0  0  0  0  0  0
    9.8293   40.7403   31.7573 H   0  0  0  0  0  0  0  0  0  0  0  0
   11.6985   39.5099   30.3493 H   0  0  0  0  0  0  0  0  0  0  0  0
   10.1125   38.2592   32.6663 H   0  0  0  0  0  0  0  0  0  0  0  0
   13.6798   37.4637   31.2265 H   0  0  0  0  0  0  0  0  0  0  0  0
    8.8955   38.6917   30.8884 H   0  0  0  0  0  0  0  0  0  0  0  0
   11.2830   36.3065   32.4930 H   0  0  0  0  0  0  0  0  0  0  0  0
   11.8858   36.9592   29.7594 H   0  0  0  0  0  0  0  0  0  0  0  0
   12.3360   38.3602   34.7443 H   0  0  0  0  0  0  0  0  0  0  0  0
   16.7571   34.1794   32.4620 H   0  0  0  0  0  0  0  0  0  0  0  0
   16.6362   34.5318   37.1415 H   0  0  0  0  0  0  0  0  0  0  0  0
   15.3528   35.7357   37.5139 H   0  0  0  0  0  0  0  0  0  0  0  0
  1  2  2  0
  1  3  1  0
  3  4  1  0
  4  5  1  0
  6  1  1  0
  7  6  1  0
  6  8  1  0
  8  9  1  0
  9 10  2  0
 11  9  1  0
 10 12  1  0
 13 11  2  0
 12 14  2  0
 14 13  1  0
 14 15  1  0
 15 16  1  0
  4 17  2  0
  4 18  1  0
 19 18  1  0
 19 20  1  0
 20 21  1  0
 20 22  1  0
 21 23  1  0
 22 24  1  0
 22 25  1  0
 25 23  1  0
 23 26  1  0
 25 27  1  0
 28 26  1  0
 29 26  1  0
 30 28  2  0
 28 31  1  0
 32 29  2  0
 33 30  1  0
 31 34  2  0
 31 32  1  0
 35 33  2  0
 35 34  1  0
 34 36  1  0
  6 37  1  1
  7 38  1  0
  7 39  1  0
  8 40  1  0
  8 41  1  0
 10 42  1  0
 11 43  1  0
 12 44  1  0
 13 45  1  0
 16 46  1  0
 16 47  1  0
 16 48  1  0
 19 49  1  0
 19 50  1  0
 20 51  1  0
 22 52  1  0
 23 53  1  0
 24 54  1  0
 25 55  1  0
 27 56  1  0
 29 57  1  0
 33 58  1  0
 36 59  1  0
 36 60  1  0
M  CHG  1   5  -1
M  END
>  <EmbedRMS>  (163) 
0.08793955075707693

$$$$

     RDKit          3D

 60 63  0  0  0  0  0  0  0  0999 V2000
   10.2903   43.7658   33.7848 C   0  0  0  0  0  0  0  0  0  0  0  0
   11.4131   43.5736   34.3382 O   0  0  0  0  0  0  0  0  0  0  0  0
    9.3652   42.7301   33.6896 O   0  0  0  0  0  0  0  0  0  0  0  0
    9.8809   41.2332   34.2815 P   0  0  0  0  0  5  0  0  0  0  0  0
   10.3594   41.4730   35.8724 O   0  0  0  0  0  1  0  0  0  0  0  0
    9.9342   45.1396   33.3237 C   0  0  1  0  0  0  0  0  0  0  0  0
   11.0773   46.0465   33.4448 N   0  0  0  0  0  0  0  0  0  0  0  0
    9.3097   45.2009   31.9135 C   0  0  0  0  0  0  0  0  0  0  0  0
   10.1442   44.5782   30.8197 C   0  0  0  0  0  0  0  0  0  0  0  0
    9.7612   43.3523   30.2537 C   0  0  0  0  0  0  0  0  0  0  0  0
   11.2625   45.2498   30.3007 C   0  0  0  0  0  0  0  0  0  0  0  0
   10.5014   42.7931   29.2081 C   0  0  0  0  0  0  0  0  0  0  0  0
   12.0103   44.6842   29.2635 C   0  0  0  0  0  0  0  0  0  0  0  0
   11.6348   43.4450   28.7113 C   0  0  0  0  0  0  0  0  0  0  0  0
   12.3536   42.8342   27.6731 O   0  0  0  0  0  0  0  0  0  0  0  0
   13.5271   43.3794   27.0792 C   0  0  0  0  0  0  0  0  0  0  0  0
    8.8031   40.1909   34.2078 O   0  0  0  0  0  0  0  0  0  0  0  0
   11.2360   40.7779   33.3771 O   0  0  0  0  0  0  0  0  0  0  0  0
   10.9287   40.6875   32.0015 C   0  0  0  0  0  0  0  0  0  0  0  0
   11.5295   39.3865   31.4384 C   0  0  0  0  0  0  0  0  0  0  0  0
   12.7530   39.0867   32.0804 O   0  0  0  0  0  0  0  0  0  0  0  0
   10.6132   38.1906   31.6472 C   0  0  0  0  0  0  0  0  0  0  0  0
   12.9380   37.6804   32.0298 C   0  0  0  0  0  0  0  0  0  0  0  0
    9.6160   38.0866   30.6544 O   0  0  0  0  0  0  0  0  0  0  0  0
   11.5788   37.0136   31.7016 C   0  0  0  0  0  0  0  0  0  0  0  0
   13.4905   37.2156   33.3243 N   0  0  0  0  0  0  0  0  0  0  0  0
   11.6201   36.3255   30.4725 O   0  0  0  0  0  0  0  0  0  0  0  0
   14.4765   36.3260   33.5733 C   0  0  0  0  0  0  0  0  0  0  0  0
   13.1181   37.6302   34.5692 C   0  0  0  0  0  0  0  0  0  0  0  0
   15.2068   35.6131   32.6742 N   0  0  0  0  0  0  0  0  0  0  0  0
   14.6738   36.2268   34.9186 C   0  0  0  0  0  0  0  0  0  0  0  0
   13.8230   37.0449   35.5787 N   0  0  0  0  0  0  0  0  0  0  0  0
   16.1643   34.7590   33.1549 C   0  0  0  0  0  0  0  0  0  0  0  0
   15.6521   35.3488   35.4134 C   0  0  0  0  0  0  0  0  0  0  0  0
   16.3797   34.6307   34.5045 N   0  0  0  0  0  0  0  0  0  0  0  0
   15.9007   35.1931   36.8092 N   0  0  0  0  0  0  0  0  0  0  0  0
    9.1486   45.5055   34.0219 H   0  0  0  0  0  0  0  0  0  0  0  0
   11.9198   45.6326   32.9832 H   0  0  0  0  0  0  0  0  0  0  0  0
   11.3042   46.1803   34.4577 H   0  0  0  0  0  0  0  0  0  0  0  0
    8.3106   44.7124   31.9494 H   0  0  0  0  0  0  0  0  0  0  0  0
    9.1158   46.2646   31.6534 H   0  0  0  0  0  0  0  0  0  0  0  0
    8.8885   42.8268   30.6209 H   0  0  0  0  0  0  0  0  0  0  0  0
   11.5493   46.2189   30.6881 H   0  0  0  0  0  0  0  0  0  0  0  0
   10.1983   41.8417   28.7893 H   0  0  0  0  0  0  0  0  0  0  0  0
   12.8717   45.2226   28.8925 H   0  0  0  0  0  0  0  0  0  0  0  0
   14.3235   43.4956   27.8444 H   0  0  0  0  0  0  0  0  0  0  0  0
   13.2983   44.3611   26.6131 H   0  0  0  0  0  0  0  0  0  0  0  0
   13.8894   42.6879   26.2913 H   0  0  0  0  0  0  0  0  0  0  0  0
    9.8428   40.7355   31.7503 H   0  0  0  0  0  0  0  0  0  0  0  0
   11.4304   41.5394   31.5000 H   0  0  0  0  0  0  0  0  0  0  0  0
   11.7302   39.5311   30.3521 H   0  0  0  0  0  0  0  0  0  0  0  0
   10.1146   38.2735   32.6388 H   0  0  0  0  0  0  0  0  0  0  0  0
   13.6728   37.4592   31.2239 H   0  0  0  0  0  0  0  0  0  0  0  0
   10.0546   38.1143   29.7645 H   0  0  0  0  0  0  0  0  0  0  0  0
   11.2635   36.3135   32.5108 H   0  0  0  0  0  0  0  0  0  0  0  0
   12.1517   35.5024   30.6313 H   0  0  0  0  0  0  0  0  0  0  0  0
   12.3360   38.3579   34.7445 H   0  0  0  0  0  0  0  0  0  0  0  0
   16.7578   34.1785   32.4622 H   0  0  0  0  0  0  0  0  0  0  0  0
   15.3533   35.7353   37.5141 H   0  0  0  0  0  0  0  0  0  0  0  0
   16.6367   34.5314   37.1418 H   0  0  0  0  0  0  0  0  0  0  0  0
  1  2  2  0
  1  3  1  0
  3  4  1  0
  4  5  1  0
  6  1  1  0
  7  6  1  0
  6  8  1  0
  8  9  1  0
  9 10  2  0
 11  9  1  0
 10 12  1  0
 13 11  2  0
 12 14  2  0
 14 13  1  0
 14 15  1  0
 15 16  1  0
  4 17  2  0
  4 18  1  0
 19 18  1  0
 19 20  1  0
 20 21  1  0
 20 22  1  0
 21 23  1  0
 22 24  1  0
 22 25  1  0
 25 23  1  0
 23 26  1  0
 25 27  1  0
 28 26  1  0
 29 26  1  0
 30 28  2  0
 28 31  1  0
 32 29  2  0
 33 30  1  0
 31 34  2  0
 31 32  1  0
 35 33  2  0
 35 34  1  0
 34 36  1  0
  6 37  1  1
  7 38  1  0
  7 39  1  0
  8 40  1  0
  8 41  1  0
 10 42  1  0
 11 43  1  0
 12 44  1  0
 13 45  1  0
 16 46  1  0
 16 47  1  0
 16 48  1  0
 19 49  1  0
 19 50  1  0
 20 51  1  0
 22 52  1  0
 23 53  1  0
 24 54  1  0
 25 55  1  0
 27 56  1  0
 29 57  1  0
 33 58  1  0
 36 59  1  0
 36 60  1  0
M  CHG  1   5  -1
M  END
>  <EmbedRMS>  (164) 
0.0923823867683749

$$$$

     RDKit          3D

 60 63  0  0  0  0  0  0  0  0999 V2000
   10.2999   43.7682   33.7922 C   0  0  0  0  0  0  0  0  0  0  0  0
   11.4162   43.5823   34.3589 O   0  0  0  0  0  0  0  0  0  0  0  0
    9.3692   42.7353   33.7056 O   0  0  0  0  0  0  0  0  0  0  0  0
    9.8860   41.2354   34.2840 P   0  0  0  0  0  5  0  0  0  0  0  0
   10.3693   41.4673   35.8741 O   0  0  0  0  0  1  0  0  0  0  0  0
    9.9795   45.1073   33.2187 C   0  0  1  0  0  0  0  0  0  0  0  0
   11.0350   46.0792   33.5242 N   0  0  0  0  0  0  0  0  0  0  0  0
    9.6924   45.0376   31.6955 C   0  0  0  0  0  0  0  0  0  0  0  0
   10.8953   45.2733   30.8041 C   0  0  0  0  0  0  0  0  0  0  0  0
   12.0171   44.4317   30.8682 C   0  0  0  0  0  0  0  0  0  0  0  0
   10.8884   46.3259   29.8732 C   0  0  0  0  0  0  0  0  0  0  0  0
   13.1126   44.6396   30.0255 C   0  0  0  0  0  0  0  0  0  0  0  0
   11.9833   46.5334   29.0296 C   0  0  0  0  0  0  0  0  0  0  0  0
   13.1018   45.6958   29.0959 C   0  0  0  0  0  0  0  0  0  0  0  0
   14.1751   45.9460   28.2279 O   0  0  0  0  0  0  0  0  0  0  0  0
   15.3721   45.1759   28.1872 C   0  0  0  0  0  0  0  0  0  0  0  0
    8.8076   40.1933   34.2081 O   0  0  0  0  0  0  0  0  0  0  0  0
   11.2359   40.7948   33.3623 O   0  0  0  0  0  0  0  0  0  0  0  0
   10.9034   40.6756   31.9927 C   0  0  0  0  0  0  0  0  0  0  0  0
   11.5134   39.3740   31.4419 C   0  0  0  0  0  0  0  0  0  0  0  0
   12.7463   39.0874   32.0764 O   0  0  0  0  0  0  0  0  0  0  0  0
   10.6040   38.1829   31.6704 C   0  0  0  0  0  0  0  0  0  0  0  0
   12.9407   37.6820   32.0274 C   0  0  0  0  0  0  0  0  0  0  0  0
    9.6380   38.0822   30.6484 O   0  0  0  0  0  0  0  0  0  0  0  0
   11.5823   37.0158   31.6929 C   0  0  0  0  0  0  0  0  0  0  0  0
   13.4904   37.2175   33.3235 N   0  0  0  0  0  0  0  0  0  0  0  0
   11.6129   36.3185   30.4653 O   0  0  0  0  0  0  0  0  0  0  0  0
   14.4758   36.3271   33.5734 C   0  0  0  0  0  0  0  0  0  0  0  0
   13.1171   37.6322   34.5680 C   0  0  0  0  0  0  0  0  0  0  0  0
   15.2066   35.6139   32.6749 N   0  0  0  0  0  0  0  0  0  0  0  0
   14.6722   36.2281   34.9187 C   0  0  0  0  0  0  0  0  0  0  0  0
   13.8211   37.0468   35.5778 N   0  0  0  0  0  0  0  0  0  0  0  0
   16.1636   34.7597   33.1564 C   0  0  0  0  0  0  0  0  0  0  0  0
   15.6512   35.3495   35.4146 C   0  0  0  0  0  0  0  0  0  0  0  0
   16.3785   34.6317   34.5061 N   0  0  0  0  0  0  0  0  0  0  0  0
   15.9061   35.1879   36.8089 N   0  0  0  0  0  0  0  0  0  0  0  0
    9.0436   45.4462   33.7166 H   0  0  0  0  0  0  0  0  0  0  0  0
   11.0531   46.2446   34.5573 H   0  0  0  0  0  0  0  0  0  0  0  0
   11.9766   45.7174   33.2493 H   0  0  0  0  0  0  0  0  0  0  0  0
    8.9133   45.7982   31.4673 H   0  0  0  0  0  0  0  0  0  0  0  0
    9.2384   44.0589   31.4264 H   0  0  0  0  0  0  0  0  0  0  0  0
   12.0600   43.6338   31.5921 H   0  0  0  0  0  0  0  0  0  0  0  0
   10.0349   46.9879   29.7963 H   0  0  0  0  0  0  0  0  0  0  0  0
   13.9631   43.9769   30.1085 H   0  0  0  0  0  0  0  0  0  0  0  0
   11.9621   47.3496   28.3186 H   0  0  0  0  0  0  0  0  0  0  0  0
   16.0444   45.5918   27.4093 H   0  0  0  0  0  0  0  0  0  0  0  0
   15.1390   44.1214   27.9288 H   0  0  0  0  0  0  0  0  0  0  0  0
   15.8904   45.2238   29.1681 H   0  0  0  0  0  0  0  0  0  0  0  0
   11.3638   41.5218   31.4501 H   0  0  0  0  0  0  0  0  0  0  0  0
    9.8116   40.7032   31.7631 H   0  0  0  0  0  0  0  0  0  0  0  0
   11.6946   39.4989   30.3491 H   0  0  0  0  0  0  0  0  0  0  0  0
   10.1296   38.2592   32.6802 H   0  0  0  0  0  0  0  0  0  0  0  0
   13.6816   37.4635   31.2267 H   0  0  0  0  0  0  0  0  0  0  0  0
    8.7458   38.1163   31.0816 H   0  0  0  0  0  0  0  0  0  0  0  0
   11.2874   36.2985   32.4904 H   0  0  0  0  0  0  0  0  0  0  0  0
   11.8867   36.9601   29.7583 H   0  0  0  0  0  0  0  0  0  0  0  0
   12.3354   38.3605   34.7427 H   0  0  0  0  0  0  0  0  0  0  0  0
   16.7573   34.1789   32.4641 H   0  0  0  0  0  0  0  0  0  0  0  0
   15.3672   35.7228   37.5256 H   0  0  0  0  0  0  0  0  0  0  0  0
   15.3669   35.7231   37.5253 H   0  0  0  0  0  0  0  0  0  0  0  0
  1  2  2  0
  1  3  1  0
  3  4  1  0
  4  5  1  0
  6  1  1  0
  7  6  1  0
  6  8  1  0
  8  9  1  0
  9 10  2  0
 11  9  1  0
 10 12  1  0
 13 11  2  0
 12 14  2  0
 14 13  1  0
 14 15  1  0
 15 16  1  0
  4 17  2  0
  4 18  1  0
 19 18  1  0
 19 20  1  0
 20 21  1  0
 20 22  1  0
 21 23  1  0
 22 24  1  0
 22 25  1  0
 25 23  1  0
 23 26  1  0
 25 27  1  0
 28 26  1  0
 29 26  1  0
 30 28  2  0
 28 31  1  0
 32 29  2  0
 33 30  1  0
 31 34  2  0
 31 32  1  0
 35 33  2  0
 35 34  1  0
 34 36  1  0
  6 37  1  1
  7 38  1  0
  7 39  1  0
  8 40  1  0
  8 41  1  0
 10 42  1  0
 11 43  1  0
 12 44  1  0
 13 45  1  0
 16 46  1  0
 16 47  1  0
 16 48  1  0
 19 49  1  0
 19 50  1  0
 20 51  1  0
 22 52  1  0
 23 53  1  0
 24 54  1  0
 25 55  1  0
 27 56  1  0
 29 57  1  0
 33 58  1  0
 36 59  1  0
 36 60  1  0
M  CHG  1   5  -1
M  END
>  <EmbedRMS>  (165) 
0.09012368235601469

$$$$

     RDKit          3D

 60 63  0  0  0  0  0  0  0  0999 V2000
   10.2903   43.7683   33.8033 C   0  0  0  0  0  0  0  0  0  0  0  0
   11.4117   43.5808   34.3603 O   0  0  0  0  0  0  0  0  0  0  0  0
    9.3641   42.7329   33.7099 O   0  0  0  0  0  0  0  0  0  0  0  0
    9.8840   41.2334   34.2858 P   0  0  0  0  0  5  0  0  0  0  0  0
   10.3668   41.4655   35.8759 O   0  0  0  0  0  1  0  0  0  0  0  0
    9.9697   45.1050   33.2282 C   0  0  1  0  0  0  0  0  0  0  0  0
   11.0569   46.0521   33.4895 N   0  0  0  0  0  0  0  0  0  0  0  0
    9.7168   44.9858   31.7145 C   0  0  0  0  0  0  0  0  0  0  0  0
    9.2985   46.3070   31.1219 C   0  0  0  0  0  0  0  0  0  0  0  0
   10.2465   47.1485   30.5196 C   0  0  0  0  0  0  0  0  0  0  0  0
    7.9628   46.7282   31.2080 C   0  0  0  0  0  0  0  0  0  0  0  0
    9.8614   48.3861   29.9955 C   0  0  0  0  0  0  0  0  0  0  0  0
    7.5781   47.9654   30.6837 C   0  0  0  0  0  0  0  0  0  0  0  0
    8.5188   48.8034   30.0737 C   0  0  0  0  0  0  0  0  0  0  0  0
    8.0824   50.0350   29.5631 O   0  0  0  0  0  0  0  0  0  0  0  0
    8.9279   50.9834   28.9204 C   0  0  0  0  0  0  0  0  0  0  0  0
    8.8066   40.1905   34.2089 O   0  0  0  0  0  0  0  0  0  0  0  0
   11.2356   40.7927   33.3671 O   0  0  0  0  0  0  0  0  0  0  0  0
   10.9121   40.6870   31.9947 C   0  0  0  0  0  0  0  0  0  0  0  0
   11.5163   39.3804   31.4412 C   0  0  0  0  0  0  0  0  0  0  0  0
   12.7482   39.0893   32.0767 O   0  0  0  0  0  0  0  0  0  0  0  0
   10.6048   38.1880   31.6659 C   0  0  0  0  0  0  0  0  0  0  0  0
   12.9410   37.6834   32.0279 C   0  0  0  0  0  0  0  0  0  0  0  0
    9.6357   38.0932   30.6501 O   0  0  0  0  0  0  0  0  0  0  0  0
   11.5826   37.0183   31.6937 C   0  0  0  0  0  0  0  0  0  0  0  0
   13.4908   37.2179   33.3239 N   0  0  0  0  0  0  0  0  0  0  0  0
   11.6141   36.3183   30.4676 O   0  0  0  0  0  0  0  0  0  0  0  0
   14.4762   36.3271   33.5732 C   0  0  0  0  0  0  0  0  0  0  0  0
   13.1179   37.6318   34.5689 C   0  0  0  0  0  0  0  0  0  0  0  0
   15.2066   35.6141   32.6743 N   0  0  0  0  0  0  0  0  0  0  0  0
   14.6731   36.2273   34.9186 C   0  0  0  0  0  0  0  0  0  0  0  0
   13.8223   37.0456   35.5785 N   0  0  0  0  0  0  0  0  0  0  0  0
   16.1638   34.7596   33.1550 C   0  0  0  0  0  0  0  0  0  0  0  0
   15.6515   35.3491   35.4134 C   0  0  0  0  0  0  0  0  0  0  0  0
   16.3792   34.6310   34.5045 N   0  0  0  0  0  0  0  0  0  0  0  0
   15.9002   35.1933   36.8092 N   0  0  0  0  0  0  0  0  0  0  0  0
    9.0440   45.4767   33.7206 H   0  0  0  0  0  0  0  0  0  0  0  0
   11.1827   46.1618   34.5226 H   0  0  0  0  0  0  0  0  0  0  0  0
   11.9531   45.6972   33.0808 H   0  0  0  0  0  0  0  0  0  0  0  0
    8.9149   44.2380   31.5253 H   0  0  0  0  0  0  0  0  0  0  0  0
   10.6326   44.6095   31.2060 H   0  0  0  0  0  0  0  0  0  0  0  0
   11.2851   46.8474   30.4577 H   0  0  0  0  0  0  0  0  0  0  0  0
    7.2202   46.0986   31.6826 H   0  0  0  0  0  0  0  0  0  0  0  0
   10.6144   49.0109   29.5350 H   0  0  0  0  0  0  0  0  0  0  0  0
    6.5435   48.2765   30.7541 H   0  0  0  0  0  0  0  0  0  0  0  0
    8.3224   51.8620   28.6174 H   0  0  0  0  0  0  0  0  0  0  0  0
    9.7217   51.3224   29.6190 H   0  0  0  0  0  0  0  0  0  0  0  0
    9.3834   50.5351   28.0122 H   0  0  0  0  0  0  0  0  0  0  0  0
    9.8219   40.7217   31.7588 H   0  0  0  0  0  0  0  0  0  0  0  0
   11.3829   41.5447   31.4684 H   0  0  0  0  0  0  0  0  0  0  0  0
   11.6990   39.5073   30.3491 H   0  0  0  0  0  0  0  0  0  0  0  0
   10.1116   38.2724   32.6631 H   0  0  0  0  0  0  0  0  0  0  0  0
   13.6814   37.4642   31.2269 H   0  0  0  0  0  0  0  0  0  0  0  0
    9.0036   37.3829   30.9346 H   0  0  0  0  0  0  0  0  0  0  0  0
   11.2846   36.3045   32.4929 H   0  0  0  0  0  0  0  0  0  0  0  0
   11.8849   36.9593   29.7589 H   0  0  0  0  0  0  0  0  0  0  0  0
   12.3364   38.3601   34.7442 H   0  0  0  0  0  0  0  0  0  0  0  0
   16.7573   34.1792   32.4622 H   0  0  0  0  0  0  0  0  0  0  0  0
   15.3529   35.7356   37.5141 H   0  0  0  0  0  0  0  0  0  0  0  0
   16.6362   34.5317   37.1417 H   0  0  0  0  0  0  0  0  0  0  0  0
  1  2  2  0
  1  3  1  0
  3  4  1  0
  4  5  1  0
  6  1  1  0
  7  6  1  0
  6  8  1  0
  8  9  1  0
  9 10  2  0
 11  9  1  0
 10 12  1  0
 13 11  2  0
 12 14  2  0
 14 13  1  0
 14 15  1  0
 15 16  1  0
  4 17  2  0
  4 18  1  0
 19 18  1  0
 19 20  1  0
 20 21  1  0
 20 22  1  0
 21 23  1  0
 22 24  1  0
 22 25  1  0
 25 23  1  0
 23 26  1  0
 25 27  1  0
 28 26  1  0
 29 26  1  0
 30 28  2  0
 28 31  1  0
 32 29  2  0
 33 30  1  0
 31 34  2  0
 31 32  1  0
 35 33  2  0
 35 34  1  0
 34 36  1  0
  6 37  1  1
  7 38  1  0
  7 39  1  0
  8 40  1  0
  8 41  1  0
 10 42  1  0
 11 43  1  0
 12 44  1  0
 13 45  1  0
 16 46  1  0
 16 47  1  0
 16 48  1  0
 19 49  1  0
 19 50  1  0
 20 51  1  0
 22 52  1  0
 23 53  1  0
 24 54  1  0
 25 55  1  0
 27 56  1  0
 29 57  1  0
 33 58  1  0
 36 59  1  0
 36 60  1  0
M  CHG  1   5  -1
M  END
>  <EmbedRMS>  (166) 
0.08827644123012526

$$$$

     RDKit          3D

 60 63  0  0  0  0  0  0  0  0999 V2000
   10.2867   43.7697   33.7825 C   0  0  0  0  0  0  0  0  0  0  0  0
   11.4111   43.5817   34.3348 O   0  0  0  0  0  0  0  0  0  0  0  0
    9.3643   42.7311   33.6893 O   0  0  0  0  0  0  0  0  0  0  0  0
    9.8823   41.2347   34.2813 P   0  0  0  0  0  5  0  0  0  0  0  0
   10.3602   41.4746   35.8723 O   0  0  0  0  0  1  0  0  0  0  0  0
    9.9271   45.1413   33.3250 C   0  0  1  0  0  0  0  0  0  0  0  0
   11.0855   46.0268   33.4493 N   0  0  0  0  0  0  0  0  0  0  0  0
    9.2658   45.2056   31.9256 C   0  0  0  0  0  0  0  0  0  0  0  0
   10.0387   44.5304   30.8181 C   0  0  0  0  0  0  0  0  0  0  0  0
   11.1388   45.1643   30.2193 C   0  0  0  0  0  0  0  0  0  0  0  0
    9.6120   43.2897   30.3195 C   0  0  0  0  0  0  0  0  0  0  0  0
   11.8309   44.5426   29.1759 C   0  0  0  0  0  0  0  0  0  0  0  0
   10.2954   42.6746   29.2666 C   0  0  0  0  0  0  0  0  0  0  0  0
   11.4236   43.2926   28.6966 C   0  0  0  0  0  0  0  0  0  0  0  0
   12.1599   42.7024   27.6588 O   0  0  0  0  0  0  0  0  0  0  0  0
   11.8787   41.4221   27.1026 C   0  0  0  0  0  0  0  0  0  0  0  0
    8.8050   40.1916   34.2076 O   0  0  0  0  0  0  0  0  0  0  0  0
   11.2382   40.7794   33.3774 O   0  0  0  0  0  0  0  0  0  0  0  0
   10.9317   40.6873   32.0017 C   0  0  0  0  0  0  0  0  0  0  0  0
   11.5219   39.3794   31.4417 C   0  0  0  0  0  0  0  0  0  0  0  0
   12.7525   39.0849   32.0736 O   0  0  0  0  0  0  0  0  0  0  0  0
   10.6065   38.1886   31.6661 C   0  0  0  0  0  0  0  0  0  0  0  0
   12.9369   37.6793   32.0285 C   0  0  0  0  0  0  0  0  0  0  0  0
    9.6437   38.0766   30.6445 O   0  0  0  0  0  0  0  0  0  0  0  0
   11.5762   37.0157   31.7047 C   0  0  0  0  0  0  0  0  0  0  0  0
   13.4907   37.2168   33.3237 N   0  0  0  0  0  0  0  0  0  0  0  0
   11.6091   36.3400   30.4680 O   0  0  0  0  0  0  0  0  0  0  0  0
   14.4764   36.3266   33.5730 C   0  0  0  0  0  0  0  0  0  0  0  0
   13.1180   37.6311   34.5687 C   0  0  0  0  0  0  0  0  0  0  0  0
   15.2066   35.6135   32.6741 N   0  0  0  0  0  0  0  0  0  0  0  0
   14.6735   36.2273   34.9184 C   0  0  0  0  0  0  0  0  0  0  0  0
   13.8227   37.0455   35.5783 N   0  0  0  0  0  0  0  0  0  0  0  0
   16.1639   34.7592   33.1549 C   0  0  0  0  0  0  0  0  0  0  0  0
   15.6518   35.3491   35.4132 C   0  0  0  0  0  0  0  0  0  0  0  0
   16.3794   34.6309   34.5044 N   0  0  0  0  0  0  0  0  0  0  0  0
   15.9004   35.1933   36.8091 N   0  0  0  0  0  0  0  0  0  0  0  0
    9.1644   45.5085   34.0464 H   0  0  0  0  0  0  0  0  0  0  0  0
   10.8127   46.9929   33.1557 H   0  0  0  0  0  0  0  0  0  0  0  0
   11.8500   45.7040   32.8141 H   0  0  0  0  0  0  0  0  0  0  0  0
    9.0957   46.2690   31.6490 H   0  0  0  0  0  0  0  0  0  0  0  0
    8.2515   44.7542   31.9997 H   0  0  0  0  0  0  0  0  0  0  0  0
   11.4544   46.1457   30.5490 H   0  0  0  0  0  0  0  0  0  0  0  0
    8.7484   42.7951   30.7463 H   0  0  0  0  0  0  0  0  0  0  0  0
   12.6859   45.0377   28.7331 H   0  0  0  0  0  0  0  0  0  0  0  0
    9.9468   41.7132   28.9148 H   0  0  0  0  0  0  0  0  0  0  0  0
   10.8656   41.4174   26.6479 H   0  0  0  0  0  0  0  0  0  0  0  0
   11.9485   40.6407   27.8888 H   0  0  0  0  0  0  0  0  0  0  0  0
   12.6238   41.1985   26.3121 H   0  0  0  0  0  0  0  0  0  0  0  0
   11.4422   41.5331   31.4980 H   0  0  0  0  0  0  0  0  0  0  0  0
    9.8476   40.7484   31.7508 H   0  0  0  0  0  0  0  0  0  0  0  0
   11.7018   39.5073   30.3492 H   0  0  0  0  0  0  0  0  0  0  0  0
   10.1103   38.2632   32.6633 H   0  0  0  0  0  0  0  0  0  0  0  0
   13.6700   37.4543   31.2222 H   0  0  0  0  0  0  0  0  0  0  0  0
    8.9128   38.7086   30.8699 H   0  0  0  0  0  0  0  0  0  0  0  0
   11.2679   36.3070   32.5091 H   0  0  0  0  0  0  0  0  0  0  0  0
   12.1399   35.5141   30.6152 H   0  0  0  0  0  0  0  0  0  0  0  0
   12.3357   38.3586   34.7439 H   0  0  0  0  0  0  0  0  0  0  0  0
   16.7574   34.1786   32.4622 H   0  0  0  0  0  0  0  0  0  0  0  0
   15.3531   35.7356   37.5139 H   0  0  0  0  0  0  0  0  0  0  0  0
   16.6363   34.5316   37.1417 H   0  0  0  0  0  0  0  0  0  0  0  0
  1  2  2  0
  1  3  1  0
  3  4  1  0
  4  5  1  0
  6  1  1  0
  7  6  1  0
  6  8  1  0
  8  9  1  0
  9 10  2  0
 11  9  1  0
 10 12  1  0
 13 11  2  0
 12 14  2  0
 14 13  1  0
 14 15  1  0
 15 16  1  0
  4 17  2  0
  4 18  1  0
 19 18  1  0
 19 20  1  0
 20 21  1  0
 20 22  1  0
 21 23  1  0
 22 24  1  0
 22 25  1  0
 25 23  1  0
 23 26  1  0
 25 27  1  0
 28 26  1  0
 29 26  1  0
 30 28  2  0
 28 31  1  0
 32 29  2  0
 33 30  1  0
 31 34  2  0
 31 32  1  0
 35 33  2  0
 35 34  1  0
 34 36  1  0
  6 37  1  1
  7 38  1  0
  7 39  1  0
  8 40  1  0
  8 41  1  0
 10 42  1  0
 11 43  1  0
 12 44  1  0
 13 45  1  0
 16 46  1  0
 16 47  1  0
 16 48  1  0
 19 49  1  0
 19 50  1  0
 20 51  1  0
 22 52  1  0
 23 53  1  0
 24 54  1  0
 25 55  1  0
 27 56  1  0
 29 57  1  0
 33 58  1  0
 36 59  1  0
 36 60  1  0
M  CHG  1   5  -1
M  END
>  <EmbedRMS>  (167) 
0.09323352390093752

$$$$

     RDKit          3D

 60 63  0  0  0  0  0  0  0  0999 V2000
   10.2923   43.7668   33.7920 C   0  0  0  0  0  0  0  0  0  0  0  0
   11.4136   43.5794   34.3496 O   0  0  0  0  0  0  0  0  0  0  0  0
    9.3646   42.7321   33.7091 O   0  0  0  0  0  0  0  0  0  0  0  0
    9.8844   41.2331   34.2862 P   0  0  0  0  0  5  0  0  0  0  0  0
   10.3660   41.4666   35.8764 O   0  0  0  0  0  1  0  0  0  0  0  0
    9.9652   45.1140   33.2340 C   0  0  1  0  0  0  0  0  0  0  0  0
   11.0564   46.0540   33.4989 N   0  0  0  0  0  0  0  0  0  0  0  0
    9.6984   45.0670   31.7146 C   0  0  0  0  0  0  0  0  0  0  0  0
    8.4710   44.2645   31.3533 C   0  0  0  0  0  0  0  0  0  0  0  0
    7.1965   44.6887   31.7621 C   0  0  0  0  0  0  0  0  0  0  0  0
    8.5902   43.0867   30.5993 C   0  0  0  0  0  0  0  0  0  0  0  0
    6.0642   43.9305   31.4495 C   0  0  0  0  0  0  0  0  0  0  0  0
    7.4590   42.3273   30.2901 C   0  0  0  0  0  0  0  0  0  0  0  0
    6.1898   42.7373   30.7129 C   0  0  0  0  0  0  0  0  0  0  0  0
    5.0860   41.9380   30.3805 O   0  0  0  0  0  0  0  0  0  0  0  0
    3.7419   42.2314   30.7474 C   0  0  0  0  0  0  0  0  0  0  0  0
    8.8067   40.1908   34.2088 O   0  0  0  0  0  0  0  0  0  0  0  0
   11.2374   40.7898   33.3702 O   0  0  0  0  0  0  0  0  0  0  0  0
   10.9173   40.6867   31.9973 C   0  0  0  0  0  0  0  0  0  0  0  0
   11.5179   39.3799   31.4409 C   0  0  0  0  0  0  0  0  0  0  0  0
   12.7483   39.0875   32.0756 O   0  0  0  0  0  0  0  0  0  0  0  0
   10.6052   38.1871   31.6654 C   0  0  0  0  0  0  0  0  0  0  0  0
   12.9360   37.6816   32.0289 C   0  0  0  0  0  0  0  0  0  0  0  0
    9.6424   38.0740   30.6439 O   0  0  0  0  0  0  0  0  0  0  0  0
   11.5765   37.0157   31.7044 C   0  0  0  0  0  0  0  0  0  0  0  0
   13.4907   37.2181   33.3237 N   0  0  0  0  0  0  0  0  0  0  0  0
   11.6104   36.3399   30.4678 O   0  0  0  0  0  0  0  0  0  0  0  0
   14.4762   36.3273   33.5728 C   0  0  0  0  0  0  0  0  0  0  0  0
   13.1180   37.6317   34.5689 C   0  0  0  0  0  0  0  0  0  0  0  0
   15.2063   35.6140   32.6739 N   0  0  0  0  0  0  0  0  0  0  0  0
   14.6733   36.2275   34.9182 C   0  0  0  0  0  0  0  0  0  0  0  0
   13.8226   37.0456   35.5784 N   0  0  0  0  0  0  0  0  0  0  0  0
   16.1636   34.7595   33.1546 C   0  0  0  0  0  0  0  0  0  0  0  0
   15.6515   35.3492   35.4130 C   0  0  0  0  0  0  0  0  0  0  0  0
   16.3791   34.6310   34.5041 N   0  0  0  0  0  0  0  0  0  0  0  0
   15.9003   35.1933   36.8089 N   0  0  0  0  0  0  0  0  0  0  0  0
    9.0556   45.4890   33.7514 H   0  0  0  0  0  0  0  0  0  0  0  0
   11.1903   46.1516   34.5324 H   0  0  0  0  0  0  0  0  0  0  0  0
   11.9489   45.7012   33.0801 H   0  0  0  0  0  0  0  0  0  0  0  0
   10.5968   44.6637   31.1961 H   0  0  0  0  0  0  0  0  0  0  0  0
    9.5527   46.1046   31.3423 H   0  0  0  0  0  0  0  0  0  0  0  0
    7.0794   45.6050   32.3270 H   0  0  0  0  0  0  0  0  0  0  0  0
    9.5592   42.7526   30.2523 H   0  0  0  0  0  0  0  0  0  0  0  0
    5.0976   44.2801   31.7856 H   0  0  0  0  0  0  0  0  0  0  0  0
    7.5693   41.4145   29.7182 H   0  0  0  0  0  0  0  0  0  0  0  0
    3.0774   41.4332   30.3580 H   0  0  0  0  0  0  0  0  0  0  0  0
    3.4289   43.2013   30.3065 H   0  0  0  0  0  0  0  0  0  0  0  0
    3.6468   42.2653   31.8533 H   0  0  0  0  0  0  0  0  0  0  0  0
   11.3946   41.5426   31.4745 H   0  0  0  0  0  0  0  0  0  0  0  0
    9.8287   40.7262   31.7621 H   0  0  0  0  0  0  0  0  0  0  0  0
   11.6996   39.5060   30.3485 H   0  0  0  0  0  0  0  0  0  0  0  0
   10.1094   38.2607   32.6630 H   0  0  0  0  0  0  0  0  0  0  0  0
   13.6696   37.4589   31.2224 H   0  0  0  0  0  0  0  0  0  0  0  0
    8.9037   38.6946   30.8763 H   0  0  0  0  0  0  0  0  0  0  0  0
   11.2690   36.3066   32.5088 H   0  0  0  0  0  0  0  0  0  0  0  0
   12.1430   35.5152   30.6150 H   0  0  0  0  0  0  0  0  0  0  0  0
   12.3358   38.3591   34.7445 H   0  0  0  0  0  0  0  0  0  0  0  0
   16.7570   34.1789   32.4618 H   0  0  0  0  0  0  0  0  0  0  0  0
   16.6362   34.5315   37.1414 H   0  0  0  0  0  0  0  0  0  0  0  0
   15.3531   35.7356   37.5138 H   0  0  0  0  0  0  0  0  0  0  0  0
  1  2  2  0
  1  3  1  0
  3  4  1  0
  4  5  1  0
  6  1  1  0
  7  6  1  0
  6  8  1  0
  8  9  1  0
  9 10  2  0
 11  9  1  0
 10 12  1  0
 13 11  2  0
 12 14  2  0
 14 13  1  0
 14 15  1  0
 15 16  1  0
  4 17  2  0
  4 18  1  0
 19 18  1  0
 19 20  1  0
 20 21  1  0
 20 22  1  0
 21 23  1  0
 22 24  1  0
 22 25  1  0
 25 23  1  0
 23 26  1  0
 25 27  1  0
 28 26  1  0
 29 26  1  0
 30 28  2  0
 28 31  1  0
 32 29  2  0
 33 30  1  0
 31 34  2  0
 31 32  1  0
 35 33  2  0
 35 34  1  0
 34 36  1  0
  6 37  1  1
  7 38  1  0
  7 39  1  0
  8 40  1  0
  8 41  1  0
 10 42  1  0
 11 43  1  0
 12 44  1  0
 13 45  1  0
 16 46  1  0
 16 47  1  0
 16 48  1  0
 19 49  1  0
 19 50  1  0
 20 51  1  0
 22 52  1  0
 23 53  1  0
 24 54  1  0
 25 55  1  0
 27 56  1  0
 29 57  1  0
 33 58  1  0
 36 59  1  0
 36 60  1  0
M  CHG  1   5  -1
M  END
>  <EmbedRMS>  (168) 
0.09031833061442482

$$$$

     RDKit          3D

 60 63  0  0  0  0  0  0  0  0999 V2000
   10.2942   43.7719   33.7962 C   0  0  0  0  0  0  0  0  0  0  0  0
   11.4142   43.5897   34.3575 O   0  0  0  0  0  0  0  0  0  0  0  0
    9.3672   42.7358   33.7086 O   0  0  0  0  0  0  0  0  0  0  0  0
    9.8871   41.2359   34.2845 P   0  0  0  0  0  5  0  0  0  0  0  0
   10.3697   41.4673   35.8747 O   0  0  0  0  0  1  0  0  0  0  0  0
    9.9758   45.1033   33.2101 C   0  0  1  0  0  0  0  0  0  0  0  0
   11.0438   46.0545   33.5253 N   0  0  0  0  0  0  0  0  0  0  0  0
    9.7482   45.0014   31.6780 C   0  0  0  0  0  0  0  0  0  0  0  0
   10.9931   45.2189   30.8395 C   0  0  0  0  0  0  0  0  0  0  0  0
   11.0088   46.2169   29.8502 C   0  0  0  0  0  0  0  0  0  0  0  0
   12.1330   44.4168   31.0122 C   0  0  0  0  0  0  0  0  0  0  0  0
   12.1429   46.4136   29.0567 C   0  0  0  0  0  0  0  0  0  0  0  0
   13.2662   44.6136   30.2188 C   0  0  0  0  0  0  0  0  0  0  0  0
   13.2835   45.6094   29.2369 C   0  0  0  0  0  0  0  0  0  0  0  0
   14.4454   45.7669   28.4668 O   0  0  0  0  0  0  0  0  0  0  0  0
   14.6013   46.7374   27.4366 C   0  0  0  0  0  0  0  0  0  0  0  0
    8.8093   40.1931   34.2080 O   0  0  0  0  0  0  0  0  0  0  0  0
   11.2379   40.7958   33.3636 O   0  0  0  0  0  0  0  0  0  0  0  0
   10.9098   40.6814   31.9926 C   0  0  0  0  0  0  0  0  0  0  0  0
   11.5149   39.3759   31.4402 C   0  0  0  0  0  0  0  0  0  0  0  0
   12.7456   39.0868   32.0761 O   0  0  0  0  0  0  0  0  0  0  0  0
   10.6043   38.1833   31.6661 C   0  0  0  0  0  0  0  0  0  0  0  0
   12.9358   37.6813   32.0291 C   0  0  0  0  0  0  0  0  0  0  0  0
    9.6416   38.0701   30.6446 O   0  0  0  0  0  0  0  0  0  0  0  0
   11.5771   37.0135   31.7043 C   0  0  0  0  0  0  0  0  0  0  0  0
   13.4909   37.2182   33.3238 N   0  0  0  0  0  0  0  0  0  0  0  0
   11.6115   36.3389   30.4672 O   0  0  0  0  0  0  0  0  0  0  0  0
   14.4762   36.3273   33.5729 C   0  0  0  0  0  0  0  0  0  0  0  0
   13.1181   37.6317   34.5690 C   0  0  0  0  0  0  0  0  0  0  0  0
   15.2063   35.6140   32.6739 N   0  0  0  0  0  0  0  0  0  0  0  0
   14.6734   36.2275   34.9183 C   0  0  0  0  0  0  0  0  0  0  0  0
   13.8227   37.0456   35.5784 N   0  0  0  0  0  0  0  0  0  0  0  0
   16.1636   34.7594   33.1546 C   0  0  0  0  0  0  0  0  0  0  0  0
   15.6516   35.3492   35.4131 C   0  0  0  0  0  0  0  0  0  0  0  0
   16.3791   34.6310   34.5041 N   0  0  0  0  0  0  0  0  0  0  0  0
   15.9003   35.1933   36.8089 N   0  0  0  0  0  0  0  0  0  0  0  0
    9.0286   45.4510   33.6817 H   0  0  0  0  0  0  0  0  0  0  0  0
   11.0605   46.2021   34.5614 H   0  0  0  0  0  0  0  0  0  0  0  0
   10.7863   46.9817   33.1146 H   0  0  0  0  0  0  0  0  0  0  0  0
    9.3034   44.0189   31.4072 H   0  0  0  0  0  0  0  0  0  0  0  0
    8.9831   45.7610   31.4046 H   0  0  0  0  0  0  0  0  0  0  0  0
   10.1422   46.8461   29.6898 H   0  0  0  0  0  0  0  0  0  0  0  0
   12.1566   43.6491   31.7693 H   0  0  0  0  0  0  0  0  0  0  0  0
   12.1215   47.1917   28.3059 H   0  0  0  0  0  0  0  0  0  0  0  0
   14.1378   43.9891   30.3694 H   0  0  0  0  0  0  0  0  0  0  0  0
   14.4940   47.7600   27.8561 H   0  0  0  0  0  0  0  0  0  0  0  0
   15.6144   46.6387   26.9959 H   0  0  0  0  0  0  0  0  0  0  0  0
   13.8481   46.5706   26.6378 H   0  0  0  0  0  0  0  0  0  0  0  0
   11.3791   41.5282   31.4552 H   0  0  0  0  0  0  0  0  0  0  0  0
    9.8201   40.7233   31.7597 H   0  0  0  0  0  0  0  0  0  0  0  0
   11.6976   39.4995   30.3476 H   0  0  0  0  0  0  0  0  0  0  0  0
   10.1096   38.2565   32.6644 H   0  0  0  0  0  0  0  0  0  0  0  0
   13.6699   37.4600   31.2226 H   0  0  0  0  0  0  0  0  0  0  0  0
    8.8946   38.6769   30.8862 H   0  0  0  0  0  0  0  0  0  0  0  0
   11.2708   36.3035   32.5083 H   0  0  0  0  0  0  0  0  0  0  0  0
   12.1456   35.5150   30.6135 H   0  0  0  0  0  0  0  0  0  0  0  0
   12.3359   38.3592   34.7446 H   0  0  0  0  0  0  0  0  0  0  0  0
   16.7569   34.1788   32.4618 H   0  0  0  0  0  0  0  0  0  0  0  0
   15.3531   35.7356   37.5138 H   0  0  0  0  0  0  0  0  0  0  0  0
   16.6362   34.5315   37.1414 H   0  0  0  0  0  0  0  0  0  0  0  0
  1  2  2  0
  1  3  1  0
  3  4  1  0
  4  5  1  0
  6  1  1  0
  7  6  1  0
  6  8  1  0
  8  9  1  0
  9 10  2  0
 11  9  1  0
 10 12  1  0
 13 11  2  0
 12 14  2  0
 14 13  1  0
 14 15  1  0
 15 16  1  0
  4 17  2  0
  4 18  1  0
 19 18  1  0
 19 20  1  0
 20 21  1  0
 20 22  1  0
 21 23  1  0
 22 24  1  0
 22 25  1  0
 25 23  1  0
 23 26  1  0
 25 27  1  0
 28 26  1  0
 29 26  1  0
 30 28  2  0
 28 31  1  0
 32 29  2  0
 33 30  1  0
 31 34  2  0
 31 32  1  0
 35 33  2  0
 35 34  1  0
 34 36  1  0
  6 37  1  1
  7 38  1  0
  7 39  1  0
  8 40  1  0
  8 41  1  0
 10 42  1  0
 11 43  1  0
 12 44  1  0
 13 45  1  0
 16 46  1  0
 16 47  1  0
 16 48  1  0
 19 49  1  0
 19 50  1  0
 20 51  1  0
 22 52  1  0
 23 53  1  0
 24 54  1  0
 25 55  1  0
 27 56  1  0
 29 57  1  0
 33 58  1  0
 36 59  1  0
 36 60  1  0
M  CHG  1   5  -1
M  END
>  <EmbedRMS>  (169) 
0.09012128219397597

$$$$

     RDKit          3D

 60 63  0  0  0  0  0  0  0  0999 V2000
   10.2895   43.7708   33.7896 C   0  0  0  0  0  0  0  0  0  0  0  0
   11.4145   43.5857   34.3410 O   0  0  0  0  0  0  0  0  0  0  0  0
    9.3634   42.7339   33.7104 O   0  0  0  0  0  0  0  0  0  0  0  0
    9.8848   41.2351   34.2868 P   0  0  0  0  0  5  0  0  0  0  0  0
   10.3676   41.4681   35.8765 O   0  0  0  0  0  1  0  0  0  0  0  0
    9.9605   45.1139   33.2271 C   0  0  1  0  0  0  0  0  0  0  0  0
   11.0592   46.0381   33.5129 N   0  0  0  0  0  0  0  0  0  0  0  0
    9.7304   45.0502   31.6994 C   0  0  0  0  0  0  0  0  0  0  0  0
    8.5421   44.2026   31.3095 C   0  0  0  0  0  0  0  0  0  0  0  0
    8.7187   43.0569   30.5183 C   0  0  0  0  0  0  0  0  0  0  0  0
    7.2472   44.5548   31.7227 C   0  0  0  0  0  0  0  0  0  0  0  0
    7.6272   42.2510   30.1835 C   0  0  0  0  0  0  0  0  0  0  0  0
    6.1549   43.7508   31.3844 C   0  0  0  0  0  0  0  0  0  0  0  0
    6.3337   42.5912   30.6215 C   0  0  0  0  0  0  0  0  0  0  0  0
    5.2081   41.8103   30.3201 O   0  0  0  0  0  0  0  0  0  0  0  0
    5.2473   40.6014   29.5688 C   0  0  0  0  0  0  0  0  0  0  0  0
    8.8071   40.1923   34.2103 O   0  0  0  0  0  0  0  0  0  0  0  0
   11.2364   40.7912   33.3694 O   0  0  0  0  0  0  0  0  0  0  0  0
   10.9128   40.6840   31.9976 C   0  0  0  0  0  0  0  0  0  0  0  0
   11.5169   39.3795   31.4424 C   0  0  0  0  0  0  0  0  0  0  0  0
   12.7489   39.0884   32.0769 O   0  0  0  0  0  0  0  0  0  0  0  0
   10.6050   38.1873   31.6662 C   0  0  0  0  0  0  0  0  0  0  0  0
   12.9411   37.6827   32.0279 C   0  0  0  0  0  0  0  0  0  0  0  0
    9.6359   38.0938   30.6501 O   0  0  0  0  0  0  0  0  0  0  0  0
   11.5826   37.0178   31.6935 C   0  0  0  0  0  0  0  0  0  0  0  0
   13.4907   37.2174   33.3240 N   0  0  0  0  0  0  0  0  0  0  0  0
   11.6140   36.3182   30.4672 O   0  0  0  0  0  0  0  0  0  0  0  0
   14.4762   36.3268   33.5733 C   0  0  0  0  0  0  0  0  0  0  0  0
   13.1179   37.6315   34.5689 C   0  0  0  0  0  0  0  0  0  0  0  0
   15.2067   35.6139   32.6744 N   0  0  0  0  0  0  0  0  0  0  0  0
   14.6731   36.2272   34.9187 C   0  0  0  0  0  0  0  0  0  0  0  0
   13.8223   37.0455   35.5785 N   0  0  0  0  0  0  0  0  0  0  0  0
   16.1639   34.7594   33.1551 C   0  0  0  0  0  0  0  0  0  0  0  0
   15.6515   35.3491   35.4135 C   0  0  0  0  0  0  0  0  0  0  0  0
   16.3793   34.6310   34.5046 N   0  0  0  0  0  0  0  0  0  0  0  0
   15.9003   35.1933   36.8093 N   0  0  0  0  0  0  0  0  0  0  0  0
    9.0388   45.4865   33.7270 H   0  0  0  0  0  0  0  0  0  0  0  0
   10.8130   46.9783   33.1254 H   0  0  0  0  0  0  0  0  0  0  0  0
   11.1166   46.1738   34.5494 H   0  0  0  0  0  0  0  0  0  0  0  0
   10.6569   44.6783   31.2076 H   0  0  0  0  0  0  0  0  0  0  0  0
    9.5533   46.0775   31.3129 H   0  0  0  0  0  0  0  0  0  0  0  0
    9.7032   42.7816   30.1633 H   0  0  0  0  0  0  0  0  0  0  0  0
    7.0828   45.4482   32.3116 H   0  0  0  0  0  0  0  0  0  0  0  0
    7.8006   41.3669   29.5854 H   0  0  0  0  0  0  0  0  0  0  0  0
    5.1637   44.0286   31.7196 H   0  0  0  0  0  0  0  0  0  0  0  0
    5.6306   40.8000   28.5456 H   0  0  0  0  0  0  0  0  0  0  0  0
    5.8912   39.8548   30.0801 H   0  0  0  0  0  0  0  0  0  0  0  0
    4.2202   40.1902   29.4897 H   0  0  0  0  0  0  0  0  0  0  0  0
   11.3842   41.5413   31.4720 H   0  0  0  0  0  0  0  0  0  0  0  0
    9.8225   40.7109   31.7650 H   0  0  0  0  0  0  0  0  0  0  0  0
   11.6987   39.5079   30.3503 H   0  0  0  0  0  0  0  0  0  0  0  0
   10.1117   38.2712   32.6634 H   0  0  0  0  0  0  0  0  0  0  0  0
   13.6816   37.4633   31.2270 H   0  0  0  0  0  0  0  0  0  0  0  0
    9.0001   37.3876   30.9365 H   0  0  0  0  0  0  0  0  0  0  0  0
   11.2846   36.3036   32.4925 H   0  0  0  0  0  0  0  0  0  0  0  0
   11.8847   36.9595   29.7587 H   0  0  0  0  0  0  0  0  0  0  0  0
   12.3363   38.3597   34.7441 H   0  0  0  0  0  0  0  0  0  0  0  0
   16.7575   34.1790   32.4623 H   0  0  0  0  0  0  0  0  0  0  0  0
   15.3529   35.7355   37.5142 H   0  0  0  0  0  0  0  0  0  0  0  0
   16.6363   34.5317   37.1418 H   0  0  0  0  0  0  0  0  0  0  0  0
  1  2  2  0
  1  3  1  0
  3  4  1  0
  4  5  1  0
  6  1  1  0
  7  6  1  0
  6  8  1  0
  8  9  1  0
  9 10  2  0
 11  9  1  0
 10 12  1  0
 13 11  2  0
 12 14  2  0
 14 13  1  0
 14 15  1  0
 15 16  1  0
  4 17  2  0
  4 18  1  0
 19 18  1  0
 19 20  1  0
 20 21  1  0
 20 22  1  0
 21 23  1  0
 22 24  1  0
 22 25  1  0
 25 23  1  0
 23 26  1  0
 25 27  1  0
 28 26  1  0
 29 26  1  0
 30 28  2  0
 28 31  1  0
 32 29  2  0
 33 30  1  0
 31 34  2  0
 31 32  1  0
 35 33  2  0
 35 34  1  0
 34 36  1  0
  6 37  1  1
  7 38  1  0
  7 39  1  0
  8 40  1  0
  8 41  1  0
 10 42  1  0
 11 43  1  0
 12 44  1  0
 13 45  1  0
 16 46  1  0
 16 47  1  0
 16 48  1  0
 19 49  1  0
 19 50  1  0
 20 51  1  0
 22 52  1  0
 23 53  1  0
 24 54  1  0
 25 55  1  0
 27 56  1  0
 29 57  1  0
 33 58  1  0
 36 59  1  0
 36 60  1  0
M  CHG  1   5  -1
M  END
>  <EmbedRMS>  (170) 
0.08848361764648675

$$$$

     RDKit          3D

 60 63  0  0  0  0  0  0  0  0999 V2000
   10.3001   43.7682   33.7924 C   0  0  0  0  0  0  0  0  0  0  0  0
   11.4163   43.5823   34.3593 O   0  0  0  0  0  0  0  0  0  0  0  0
    9.3693   42.7354   33.7058 O   0  0  0  0  0  0  0  0  0  0  0  0
    9.8856   41.2355   34.2847 P   0  0  0  0  0  5  0  0  0  0  0  0
   10.3687   41.4675   35.8748 O   0  0  0  0  0  1  0  0  0  0  0  0
    9.9798   45.1071   33.2186 C   0  0  1  0  0  0  0  0  0  0  0  0
   11.0351   46.0792   33.5236 N   0  0  0  0  0  0  0  0  0  0  0  0
    9.6923   45.0369   31.6955 C   0  0  0  0  0  0  0  0  0  0  0  0
   10.8951   45.2684   30.8024 C   0  0  0  0  0  0  0  0  0  0  0  0
   10.8837   46.3115   29.8607 C   0  0  0  0  0  0  0  0  0  0  0  0
   12.0189   44.4301   30.8723 C   0  0  0  0  0  0  0  0  0  0  0  0
   11.9760   46.5148   29.0120 C   0  0  0  0  0  0  0  0  0  0  0  0
   13.1110   44.6337   30.0249 C   0  0  0  0  0  0  0  0  0  0  0  0
   13.1010   45.6728   29.0889 C   0  0  0  0  0  0  0  0  0  0  0  0
   14.2213   45.8352   28.2603 O   0  0  0  0  0  0  0  0  0  0  0  0
   14.3463   46.8479   27.2673 C   0  0  0  0  0  0  0  0  0  0  0  0
    8.8073   40.1933   34.2086 O   0  0  0  0  0  0  0  0  0  0  0  0
   11.2356   40.7941   33.3640 O   0  0  0  0  0  0  0  0  0  0  0  0
   10.9043   40.6787   31.9941 C   0  0  0  0  0  0  0  0  0  0  0  0
   11.5233   39.3839   31.4379 C   0  0  0  0  0  0  0  0  0  0  0  0
   12.7475   39.0901   32.0851 O   0  0  0  0  0  0  0  0  0  0  0  0
   10.6111   38.1856   31.6457 C   0  0  0  0  0  0  0  0  0  0  0  0
   12.9427   37.6844   32.0298 C   0  0  0  0  0  0  0  0  0  0  0  0
    9.6059   38.0808   30.6606 O   0  0  0  0  0  0  0  0  0  0  0  0
   11.5855   37.0151   31.6875 C   0  0  0  0  0  0  0  0  0  0  0  0
   13.4900   37.2160   33.3252 N   0  0  0  0  0  0  0  0  0  0  0  0
   11.6219   36.3044   30.4681 O   0  0  0  0  0  0  0  0  0  0  0  0
   14.4760   36.3261   33.5740 C   0  0  0  0  0  0  0  0  0  0  0  0
   13.1176   37.6305   34.5700 C   0  0  0  0  0  0  0  0  0  0  0  0
   15.2066   35.6137   32.6747 N   0  0  0  0  0  0  0  0  0  0  0  0
   14.6732   36.2266   34.9192 C   0  0  0  0  0  0  0  0  0  0  0  0
   13.8225   37.0449   35.5794 N   0  0  0  0  0  0  0  0  0  0  0  0
   16.1641   34.7595   33.1552 C   0  0  0  0  0  0  0  0  0  0  0  0
   15.6519   35.3488   35.4137 C   0  0  0  0  0  0  0  0  0  0  0  0
   16.3796   34.6309   34.5046 N   0  0  0  0  0  0  0  0  0  0  0  0
   15.9007   35.1930   36.8095 N   0  0  0  0  0  0  0  0  0  0  0  0
    9.0439   45.4461   33.7164 H   0  0  0  0  0  0  0  0  0  0  0  0
   11.0526   46.2456   34.5566 H   0  0  0  0  0  0  0  0  0  0  0  0
   11.9770   45.7176   33.2495 H   0  0  0  0  0  0  0  0  0  0  0  0
    9.2355   44.0592   31.4276 H   0  0  0  0  0  0  0  0  0  0  0  0
    8.9152   45.7994   31.4674 H   0  0  0  0  0  0  0  0  0  0  0  0
   10.0277   46.9698   29.7792 H   0  0  0  0  0  0  0  0  0  0  0  0
   12.0662   43.6387   31.6030 H   0  0  0  0  0  0  0  0  0  0  0  0
   11.9345   47.3272   28.2995 H   0  0  0  0  0  0  0  0  0  0  0  0
   13.9727   43.9823   30.0993 H   0  0  0  0  0  0  0  0  0  0  0  0
   14.2928   47.8525   27.7375 H   0  0  0  0  0  0  0  0  0  0  0  0
   13.5444   46.7381   26.5070 H   0  0  0  0  0  0  0  0  0  0  0  0
   15.3294   46.7430   26.7643 H   0  0  0  0  0  0  0  0  0  0  0  0
    9.8124   40.6998   31.7643 H   0  0  0  0  0  0  0  0  0  0  0  0
   11.3586   41.5310   31.4557 H   0  0  0  0  0  0  0  0  0  0  0  0
   11.7285   39.5272   30.3523 H   0  0  0  0  0  0  0  0  0  0  0  0
   10.1205   38.2604   32.6421 H   0  0  0  0  0  0  0  0  0  0  0  0
   13.6888   37.4719   31.2324 H   0  0  0  0  0  0  0  0  0  0  0  0
   10.0246   38.1675   29.7657 H   0  0  0  0  0  0  0  0  0  0  0  0
   11.2820   36.3074   32.4903 H   0  0  0  0  0  0  0  0  0  0  0  0
   11.9897   36.9087   29.7712 H   0  0  0  0  0  0  0  0  0  0  0  0
   12.3365   38.3593   34.7454 H   0  0  0  0  0  0  0  0  0  0  0  0
   16.7578   34.1794   32.4623 H   0  0  0  0  0  0  0  0  0  0  0  0
   15.3533   35.7350   37.5144 H   0  0  0  0  0  0  0  0  0  0  0  0
   16.6369   34.5315   37.1419 H   0  0  0  0  0  0  0  0  0  0  0  0
  1  2  2  0
  1  3  1  0
  3  4  1  0
  4  5  1  0
  6  1  1  0
  7  6  1  0
  6  8  1  0
  8  9  1  0
  9 10  2  0
 11  9  1  0
 10 12  1  0
 13 11  2  0
 12 14  2  0
 14 13  1  0
 14 15  1  0
 15 16  1  0
  4 17  2  0
  4 18  1  0
 19 18  1  0
 19 20  1  0
 20 21  1  0
 20 22  1  0
 21 23  1  0
 22 24  1  0
 22 25  1  0
 25 23  1  0
 23 26  1  0
 25 27  1  0
 28 26  1  0
 29 26  1  0
 30 28  2  0
 28 31  1  0
 32 29  2  0
 33 30  1  0
 31 34  2  0
 31 32  1  0
 35 33  2  0
 35 34  1  0
 34 36  1  0
  6 37  1  1
  7 38  1  0
  7 39  1  0
  8 40  1  0
  8 41  1  0
 10 42  1  0
 11 43  1  0
 12 44  1  0
 13 45  1  0
 16 46  1  0
 16 47  1  0
 16 48  1  0
 19 49  1  0
 19 50  1  0
 20 51  1  0
 22 52  1  0
 23 53  1  0
 24 54  1  0
 25 55  1  0
 27 56  1  0
 29 57  1  0
 33 58  1  0
 36 59  1  0
 36 60  1  0
M  CHG  1   5  -1
M  END
>  <EmbedRMS>  (171) 
0.08917567300544822

$$$$

     RDKit          3D

 60 63  0  0  0  0  0  0  0  0999 V2000
   10.2871   43.7692   33.7895 C   0  0  0  0  0  0  0  0  0  0  0  0
   11.4140   43.5805   34.3360 O   0  0  0  0  0  0  0  0  0  0  0  0
    9.3643   42.7312   33.6953 O   0  0  0  0  0  0  0  0  0  0  0  0
    9.8823   41.2338   34.2826 P   0  0  0  0  0  5  0  0  0  0  0  0
   10.3619   41.4721   35.8732 O   0  0  0  0  0  1  0  0  0  0  0  0
    9.9371   45.1298   33.2923 C   0  0  1  0  0  0  0  0  0  0  0  0
   11.0773   46.0315   33.4641 N   0  0  0  0  0  0  0  0  0  0  0  0
    9.4243   45.1277   31.8315 C   0  0  0  0  0  0  0  0  0  0  0  0
   10.2828   44.3617   30.8481 C   0  0  0  0  0  0  0  0  0  0  0  0
    9.7213   43.3141   30.0981 C   0  0  0  0  0  0  0  0  0  0  0  0
   11.6142   44.7360   30.6027 C   0  0  0  0  0  0  0  0  0  0  0  0
   10.4847   42.6364   29.1435 C   0  0  0  0  0  0  0  0  0  0  0  0
   12.3822   44.0464   29.6592 C   0  0  0  0  0  0  0  0  0  0  0  0
   11.8210   42.9855   28.9239 C   0  0  0  0  0  0  0  0  0  0  0  0
   12.5520   42.2585   27.9728 O   0  0  0  0  0  0  0  0  0  0  0  0
   13.9229   42.4890   27.6656 C   0  0  0  0  0  0  0  0  0  0  0  0
    8.8045   40.1915   34.2086 O   0  0  0  0  0  0  0  0  0  0  0  0
   11.2364   40.7804   33.3754 O   0  0  0  0  0  0  0  0  0  0  0  0
   10.9267   40.6863   32.0003 C   0  0  0  0  0  0  0  0  0  0  0  0
   11.5194   39.3783   31.4412 C   0  0  0  0  0  0  0  0  0  0  0  0
   12.7506   39.0839   32.0723 O   0  0  0  0  0  0  0  0  0  0  0  0
   10.6053   38.1890   31.6677 C   0  0  0  0  0  0  0  0  0  0  0  0
   12.9349   37.6776   32.0278 C   0  0  0  0  0  0  0  0  0  0  0  0
    9.6388   38.0953   30.6490 O   0  0  0  0  0  0  0  0  0  0  0  0
   11.5754   37.0137   31.7059 C   0  0  0  0  0  0  0  0  0  0  0  0
   13.4908   37.2169   33.3232 N   0  0  0  0  0  0  0  0  0  0  0  0
   11.6218   36.3377   30.4686 O   0  0  0  0  0  0  0  0  0  0  0  0
   14.4766   36.3268   33.5728 C   0  0  0  0  0  0  0  0  0  0  0  0
   13.1181   37.6312   34.5683 C   0  0  0  0  0  0  0  0  0  0  0  0
   15.2067   35.6134   32.6740 N   0  0  0  0  0  0  0  0  0  0  0  0
   14.6736   36.2275   34.9182 C   0  0  0  0  0  0  0  0  0  0  0  0
   13.8227   37.0457   35.5780 N   0  0  0  0  0  0  0  0  0  0  0  0
   16.1640   34.7591   33.1549 C   0  0  0  0  0  0  0  0  0  0  0  0
   15.6518   35.3492   35.4132 C   0  0  0  0  0  0  0  0  0  0  0  0
   16.3794   34.6309   34.5044 N   0  0  0  0  0  0  0  0  0  0  0  0
   15.9003   35.1934   36.8091 N   0  0  0  0  0  0  0  0  0  0  0  0
    9.1037   45.5033   33.9300 H   0  0  0  0  0  0  0  0  0  0  0  0
   10.8071   46.9808   33.1178 H   0  0  0  0  0  0  0  0  0  0  0  0
   11.2565   46.1520   34.4884 H   0  0  0  0  0  0  0  0  0  0  0  0
    9.3208   46.1736   31.4704 H   0  0  0  0  0  0  0  0  0  0  0  0
    8.3938   44.7083   31.8366 H   0  0  0  0  0  0  0  0  0  0  0  0
    8.6912   43.0173   30.2511 H   0  0  0  0  0  0  0  0  0  0  0  0
   12.0607   45.5674   31.1299 H   0  0  0  0  0  0  0  0  0  0  0  0
   10.0394   41.8249   28.5819 H   0  0  0  0  0  0  0  0  0  0  0  0
   13.4077   44.3520   29.5031 H   0  0  0  0  0  0  0  0  0  0  0  0
   14.2467   41.7667   26.8886 H   0  0  0  0  0  0  0  0  0  0  0  0
   14.0583   43.5187   27.2723 H   0  0  0  0  0  0  0  0  0  0  0  0
   14.5472   42.3403   28.5719 H   0  0  0  0  0  0  0  0  0  0  0  0
    9.8411   40.7443   31.7489 H   0  0  0  0  0  0  0  0  0  0  0  0
   11.4330   41.5332   31.4961 H   0  0  0  0  0  0  0  0  0  0  0  0
   11.6993   39.5059   30.3484 H   0  0  0  0  0  0  0  0  0  0  0  0
   10.1098   38.2798   32.6633 H   0  0  0  0  0  0  0  0  0  0  0  0
   13.6671   37.4511   31.2209 H   0  0  0  0  0  0  0  0  0  0  0  0
    8.9773   37.4209   30.9536 H   0  0  0  0  0  0  0  0  0  0  0  0
   11.2847   36.3053   32.5180 H   0  0  0  0  0  0  0  0  0  0  0  0
   10.8660   35.6941   30.4657 H   0  0  0  0  0  0  0  0  0  0  0  0
   12.3355   38.3583   34.7435 H   0  0  0  0  0  0  0  0  0  0  0  0
   16.7574   34.1784   32.4623 H   0  0  0  0  0  0  0  0  0  0  0  0
   16.6361   34.5316   37.1417 H   0  0  0  0  0  0  0  0  0  0  0  0
   15.3530   35.7358   37.5138 H   0  0  0  0  0  0  0  0  0  0  0  0
  1  2  2  0
  1  3  1  0
  3  4  1  0
  4  5  1  0
  6  1  1  0
  7  6  1  0
  6  8  1  0
  8  9  1  0
  9 10  2  0
 11  9  1  0
 10 12  1  0
 13 11  2  0
 12 14  2  0
 14 13  1  0
 14 15  1  0
 15 16  1  0
  4 17  2  0
  4 18  1  0
 19 18  1  0
 19 20  1  0
 20 21  1  0
 20 22  1  0
 21 23  1  0
 22 24  1  0
 22 25  1  0
 25 23  1  0
 23 26  1  0
 25 27  1  0
 28 26  1  0
 29 26  1  0
 30 28  2  0
 28 31  1  0
 32 29  2  0
 33 30  1  0
 31 34  2  0
 31 32  1  0
 35 33  2  0
 35 34  1  0
 34 36  1  0
  6 37  1  1
  7 38  1  0
  7 39  1  0
  8 40  1  0
  8 41  1  0
 10 42  1  0
 11 43  1  0
 12 44  1  0
 13 45  1  0
 16 46  1  0
 16 47  1  0
 16 48  1  0
 19 49  1  0
 19 50  1  0
 20 51  1  0
 22 52  1  0
 23 53  1  0
 24 54  1  0
 25 55  1  0
 27 56  1  0
 29 57  1  0
 33 58  1  0
 36 59  1  0
 36 60  1  0
M  CHG  1   5  -1
M  END
>  <EmbedRMS>  (172) 
0.09133135224710762

$$$$

     RDKit          3D

 60 63  0  0  0  0  0  0  0  0999 V2000
   10.2896   43.7707   33.7895 C   0  0  0  0  0  0  0  0  0  0  0  0
   11.4145   43.5857   34.3410 O   0  0  0  0  0  0  0  0  0  0  0  0
    9.3637   42.7337   33.7100 O   0  0  0  0  0  0  0  0  0  0  0  0
    9.8852   41.2347   34.2859 P   0  0  0  0  0  5  0  0  0  0  0  0
   10.3679   41.4679   35.8758 O   0  0  0  0  0  1  0  0  0  0  0  0
    9.9605   45.1139   33.2271 C   0  0  1  0  0  0  0  0  0  0  0  0
   11.0592   46.0381   33.5129 N   0  0  0  0  0  0  0  0  0  0  0  0
    9.7302   45.0504   31.6995 C   0  0  0  0  0  0  0  0  0  0  0  0
    8.5418   44.2029   31.3097 C   0  0  0  0  0  0  0  0  0  0  0  0
    8.7183   43.0570   30.5187 C   0  0  0  0  0  0  0  0  0  0  0  0
    7.2470   44.5551   31.7231 C   0  0  0  0  0  0  0  0  0  0  0  0
    7.6268   42.2511   30.1844 C   0  0  0  0  0  0  0  0  0  0  0  0
    6.1547   43.7510   31.3852 C   0  0  0  0  0  0  0  0  0  0  0  0
    6.3333   42.5913   30.6226 C   0  0  0  0  0  0  0  0  0  0  0  0
    5.2077   41.8102   30.3217 O   0  0  0  0  0  0  0  0  0  0  0  0
    5.2469   40.6008   29.5711 C   0  0  0  0  0  0  0  0  0  0  0  0
    8.8073   40.1922   34.2098 O   0  0  0  0  0  0  0  0  0  0  0  0
   11.2369   40.7906   33.3682 O   0  0  0  0  0  0  0  0  0  0  0  0
   10.9136   40.6830   31.9962 C   0  0  0  0  0  0  0  0  0  0  0  0
   11.5166   39.3771   31.4408 C   0  0  0  0  0  0  0  0  0  0  0  0
   12.7473   39.0852   32.0745 O   0  0  0  0  0  0  0  0  0  0  0  0
   10.6046   38.1864   31.6672 C   0  0  0  0  0  0  0  0  0  0  0  0
   12.9345   37.6789   32.0283 C   0  0  0  0  0  0  0  0  0  0  0  0
    9.6379   38.0925   30.6486 O   0  0  0  0  0  0  0  0  0  0  0  0
   11.5760   37.0127   31.7055 C   0  0  0  0  0  0  0  0  0  0  0  0
   13.4908   37.2174   33.3234 N   0  0  0  0  0  0  0  0  0  0  0  0
   11.6233   36.3373   30.4681 O   0  0  0  0  0  0  0  0  0  0  0  0
   14.4765   36.3270   33.5728 C   0  0  0  0  0  0  0  0  0  0  0  0
   13.1181   37.6314   34.5686 C   0  0  0  0  0  0  0  0  0  0  0  0
   15.2066   35.6137   32.6739 N   0  0  0  0  0  0  0  0  0  0  0  0
   14.6736   36.2275   34.9182 C   0  0  0  0  0  0  0  0  0  0  0  0
   13.8227   37.0457   35.5782 N   0  0  0  0  0  0  0  0  0  0  0  0
   16.1639   34.7592   33.1548 C   0  0  0  0  0  0  0  0  0  0  0  0
   15.6517   35.3492   35.4131 C   0  0  0  0  0  0  0  0  0  0  0  0
   16.3793   34.6309   34.5043 N   0  0  0  0  0  0  0  0  0  0  0  0
   15.9003   35.1934   36.8090 N   0  0  0  0  0  0  0  0  0  0  0  0
    9.0389   45.4864   33.7273 H   0  0  0  0  0  0  0  0  0  0  0  0
   10.8130   46.9783   33.1256 H   0  0  0  0  0  0  0  0  0  0  0  0
   11.1168   46.1737   34.5494 H   0  0  0  0  0  0  0  0  0  0  0  0
    9.5530   46.0777   31.3131 H   0  0  0  0  0  0  0  0  0  0  0  0
   10.6566   44.6786   31.2075 H   0  0  0  0  0  0  0  0  0  0  0  0
    9.7027   42.7817   30.1636 H   0  0  0  0  0  0  0  0  0  0  0  0
    7.0827   45.4486   32.3119 H   0  0  0  0  0  0  0  0  0  0  0  0
    7.8000   41.3669   29.5863 H   0  0  0  0  0  0  0  0  0  0  0  0
    5.1635   44.0289   31.7206 H   0  0  0  0  0  0  0  0  0  0  0  0
    5.8911   39.8546   30.0828 H   0  0  0  0  0  0  0  0  0  0  0  0
    5.6298   40.7988   28.5478 H   0  0  0  0  0  0  0  0  0  0  0  0
    4.2198   40.1893   29.4926 H   0  0  0  0  0  0  0  0  0  0  0  0
   11.3859   41.5395   31.4702 H   0  0  0  0  0  0  0  0  0  0  0  0
    9.8233   40.7110   31.7635 H   0  0  0  0  0  0  0  0  0  0  0  0
   11.6980   39.5027   30.3483 H   0  0  0  0  0  0  0  0  0  0  0  0
   10.1092   38.2760   32.6631 H   0  0  0  0  0  0  0  0  0  0  0  0
   13.6673   37.4545   31.2214 H   0  0  0  0  0  0  0  0  0  0  0  0
    8.9745   37.4207   30.9548 H   0  0  0  0  0  0  0  0  0  0  0  0
   11.2860   36.3036   32.5173 H   0  0  0  0  0  0  0  0  0  0  0  0
   10.8676   35.6934   30.4645 H   0  0  0  0  0  0  0  0  0  0  0  0
   12.3355   38.3585   34.7440 H   0  0  0  0  0  0  0  0  0  0  0  0
   16.7572   34.1786   32.4621 H   0  0  0  0  0  0  0  0  0  0  0  0
   16.6361   34.5316   37.1416 H   0  0  0  0  0  0  0  0  0  0  0  0
   15.3530   35.7357   37.5138 H   0  0  0  0  0  0  0  0  0  0  0  0
  1  2  2  0
  1  3  1  0
  3  4  1  0
  4  5  1  0
  6  1  1  0
  7  6  1  0
  6  8  1  0
  8  9  1  0
  9 10  2  0
 11  9  1  0
 10 12  1  0
 13 11  2  0
 12 14  2  0
 14 13  1  0
 14 15  1  0
 15 16  1  0
  4 17  2  0
  4 18  1  0
 19 18  1  0
 19 20  1  0
 20 21  1  0
 20 22  1  0
 21 23  1  0
 22 24  1  0
 22 25  1  0
 25 23  1  0
 23 26  1  0
 25 27  1  0
 28 26  1  0
 29 26  1  0
 30 28  2  0
 28 31  1  0
 32 29  2  0
 33 30  1  0
 31 34  2  0
 31 32  1  0
 35 33  2  0
 35 34  1  0
 34 36  1  0
  6 37  1  1
  7 38  1  0
  7 39  1  0
  8 40  1  0
  8 41  1  0
 10 42  1  0
 11 43  1  0
 12 44  1  0
 13 45  1  0
 16 46  1  0
 16 47  1  0
 16 48  1  0
 19 49  1  0
 19 50  1  0
 20 51  1  0
 22 52  1  0
 23 53  1  0
 24 54  1  0
 25 55  1  0
 27 56  1  0
 29 57  1  0
 33 58  1  0
 36 59  1  0
 36 60  1  0
M  CHG  1   5  -1
M  END
>  <EmbedRMS>  (173) 
0.08962490859454704

$$$$

     RDKit          3D

 60 63  0  0  0  0  0  0  0  0999 V2000
   10.2895   43.7707   33.7896 C   0  0  0  0  0  0  0  0  0  0  0  0
   11.4145   43.5857   34.3410 O   0  0  0  0  0  0  0  0  0  0  0  0
    9.3635   42.7337   33.7100 O   0  0  0  0  0  0  0  0  0  0  0  0
    9.8851   41.2348   34.2859 P   0  0  0  0  0  5  0  0  0  0  0  0
   10.3680   41.4679   35.8757 O   0  0  0  0  0  1  0  0  0  0  0  0
    9.9604   45.1140   33.2273 C   0  0  1  0  0  0  0  0  0  0  0  0
   11.0593   46.0380   33.5128 N   0  0  0  0  0  0  0  0  0  0  0  0
    9.7296   45.0503   31.6997 C   0  0  0  0  0  0  0  0  0  0  0  0
    8.5392   44.2053   31.3109 C   0  0  0  0  0  0  0  0  0  0  0  0
    7.2452   44.5618   31.7232 C   0  0  0  0  0  0  0  0  0  0  0  0
    8.7128   43.0579   30.5216 C   0  0  0  0  0  0  0  0  0  0  0  0
    6.1507   43.7606   31.3856 C   0  0  0  0  0  0  0  0  0  0  0  0
    7.6191   42.2548   30.1875 C   0  0  0  0  0  0  0  0  0  0  0  0
    6.3263   42.5995   30.6243 C   0  0  0  0  0  0  0  0  0  0  0  0
    5.1985   41.8217   30.3233 O   0  0  0  0  0  0  0  0  0  0  0  0
    5.2343   40.6118   29.5732 C   0  0  0  0  0  0  0  0  0  0  0  0
    8.8072   40.1922   34.2099 O   0  0  0  0  0  0  0  0  0  0  0  0
   11.2366   40.7907   33.3680 O   0  0  0  0  0  0  0  0  0  0  0  0
   10.9128   40.6823   31.9961 C   0  0  0  0  0  0  0  0  0  0  0  0
   11.5174   39.3771   31.4409 C   0  0  0  0  0  0  0  0  0  0  0  0
   12.7478   39.0867   32.0762 O   0  0  0  0  0  0  0  0  0  0  0  0
   10.6068   38.1848   31.6659 C   0  0  0  0  0  0  0  0  0  0  0  0
   12.9372   37.6809   32.0292 C   0  0  0  0  0  0  0  0  0  0  0  0
    9.6405   38.0889   30.6474 O   0  0  0  0  0  0  0  0  0  0  0  0
   11.5788   37.0132   31.7044 C   0  0  0  0  0  0  0  0  0  0  0  0
   13.4914   37.2179   33.3240 N   0  0  0  0  0  0  0  0  0  0  0  0
   11.6124   36.3390   30.4671 O   0  0  0  0  0  0  0  0  0  0  0  0
   14.4766   36.3271   33.5731 C   0  0  0  0  0  0  0  0  0  0  0  0
   13.1184   37.6315   34.5691 C   0  0  0  0  0  0  0  0  0  0  0  0
   15.2066   35.6138   32.6741 N   0  0  0  0  0  0  0  0  0  0  0  0
   14.6735   36.2273   34.9185 C   0  0  0  0  0  0  0  0  0  0  0  0
   13.8228   37.0455   35.5785 N   0  0  0  0  0  0  0  0  0  0  0  0
   16.1638   34.7593   33.1548 C   0  0  0  0  0  0  0  0  0  0  0  0
   15.6517   35.3490   35.4132 C   0  0  0  0  0  0  0  0  0  0  0  0
   16.3793   34.6308   34.5043 N   0  0  0  0  0  0  0  0  0  0  0  0
   15.9004   35.1932   36.8091 N   0  0  0  0  0  0  0  0  0  0  0  0
    9.0391   45.4866   33.7278 H   0  0  0  0  0  0  0  0  0  0  0  0
   10.8131   46.9783   33.1256 H   0  0  0  0  0  0  0  0  0  0  0  0
   11.1173   46.1735   34.5492 H   0  0  0  0  0  0  0  0  0  0  0  0
    9.5546   46.0778   31.3129 H   0  0  0  0  0  0  0  0  0  0  0  0
   10.6550   44.6762   31.2077 H   0  0  0  0  0  0  0  0  0  0  0  0
    7.0832   45.4565   32.3108 H   0  0  0  0  0  0  0  0  0  0  0  0
    9.6966   42.7793   30.1673 H   0  0  0  0  0  0  0  0  0  0  0  0
    5.1601   44.0418   31.7200 H   0  0  0  0  0  0  0  0  0  0  0  0
    7.7901   41.3694   29.5905 H   0  0  0  0  0  0  0  0  0  0  0  0
    5.8757   39.8638   30.0856 H   0  0  0  0  0  0  0  0  0  0  0  0
    5.6186   40.8082   28.5500 H   0  0  0  0  0  0  0  0  0  0  0  0
    4.2059   40.2037   29.4941 H   0  0  0  0  0  0  0  0  0  0  0  0
   11.3837   41.5393   31.4697 H   0  0  0  0  0  0  0  0  0  0  0  0
    9.8224   40.7088   31.7638 H   0  0  0  0  0  0  0  0  0  0  0  0
   11.6999   39.5031   30.3486 H   0  0  0  0  0  0  0  0  0  0  0  0
   10.1094   38.2740   32.6608 H   0  0  0  0  0  0  0  0  0  0  0  0
   13.6714   37.4592   31.2229 H   0  0  0  0  0  0  0  0  0  0  0  0
    8.9998   37.3882   30.9367 H   0  0  0  0  0  0  0  0  0  0  0  0
   11.2706   36.3044   32.5085 H   0  0  0  0  0  0  0  0  0  0  0  0
   12.1444   35.5138   30.6135 H   0  0  0  0  0  0  0  0  0  0  0  0
   12.3361   38.3591   34.7445 H   0  0  0  0  0  0  0  0  0  0  0  0
   16.7571   34.1787   32.4620 H   0  0  0  0  0  0  0  0  0  0  0  0
   15.3532   35.7355   37.5139 H   0  0  0  0  0  0  0  0  0  0  0  0
   16.6363   34.5314   37.1416 H   0  0  0  0  0  0  0  0  0  0  0  0
  1  2  2  0
  1  3  1  0
  3  4  1  0
  4  5  1  0
  6  1  1  0
  7  6  1  0
  6  8  1  0
  8  9  1  0
  9 10  2  0
 11  9  1  0
 10 12  1  0
 13 11  2  0
 12 14  2  0
 14 13  1  0
 14 15  1  0
 15 16  1  0
  4 17  2  0
  4 18  1  0
 19 18  1  0
 19 20  1  0
 20 21  1  0
 20 22  1  0
 21 23  1  0
 22 24  1  0
 22 25  1  0
 25 23  1  0
 23 26  1  0
 25 27  1  0
 28 26  1  0
 29 26  1  0
 30 28  2  0
 28 31  1  0
 32 29  2  0
 33 30  1  0
 31 34  2  0
 31 32  1  0
 35 33  2  0
 35 34  1  0
 34 36  1  0
  6 37  1  1
  7 38  1  0
  7 39  1  0
  8 40  1  0
  8 41  1  0
 10 42  1  0
 11 43  1  0
 12 44  1  0
 13 45  1  0
 16 46  1  0
 16 47  1  0
 16 48  1  0
 19 49  1  0
 19 50  1  0
 20 51  1  0
 22 52  1  0
 23 53  1  0
 24 54  1  0
 25 55  1  0
 27 56  1  0
 29 57  1  0
 33 58  1  0
 36 59  1  0
 36 60  1  0
M  CHG  1   5  -1
M  END
>  <EmbedRMS>  (174) 
0.08943561101595102

$$$$

     RDKit          3D

 60 63  0  0  0  0  0  0  0  0999 V2000
   10.2898   43.7708   33.7888 C   0  0  0  0  0  0  0  0  0  0  0  0
   11.4118   43.5888   34.3472 O   0  0  0  0  0  0  0  0  0  0  0  0
    9.3642   42.7335   33.7093 O   0  0  0  0  0  0  0  0  0  0  0  0
    9.8850   41.2352   34.2871 P   0  0  0  0  0  5  0  0  0  0  0  0
   10.3672   41.4686   35.8769 O   0  0  0  0  0  1  0  0  0  0  0  0
    9.9593   45.1131   33.2297 C   0  0  1  0  0  0  0  0  0  0  0  0
   11.0621   46.0349   33.5087 N   0  0  0  0  0  0  0  0  0  0  0  0
    9.6755   45.0612   31.7088 C   0  0  0  0  0  0  0  0  0  0  0  0
    8.4487   44.2508   31.3641 C   0  0  0  0  0  0  0  0  0  0  0  0
    8.5665   43.0702   30.6143 C   0  0  0  0  0  0  0  0  0  0  0  0
    7.1770   44.6680   31.7878 C   0  0  0  0  0  0  0  0  0  0  0  0
    7.4378   42.2989   30.3245 C   0  0  0  0  0  0  0  0  0  0  0  0
    6.0475   43.8986   31.4942 C   0  0  0  0  0  0  0  0  0  0  0  0
    6.1663   42.7078   30.7684 C   0  0  0  0  0  0  0  0  0  0  0  0
    5.0046   41.9655   30.5095 O   0  0  0  0  0  0  0  0  0  0  0  0
    4.9812   40.7335   29.7959 C   0  0  0  0  0  0  0  0  0  0  0  0
    8.8075   40.1923   34.2103 O   0  0  0  0  0  0  0  0  0  0  0  0
   11.2366   40.7914   33.3703 O   0  0  0  0  0  0  0  0  0  0  0  0
   10.9137   40.6877   31.9983 C   0  0  0  0  0  0  0  0  0  0  0  0
   11.5267   39.3896   31.4386 C   0  0  0  0  0  0  0  0  0  0  0  0
   12.7506   39.0916   32.0845 O   0  0  0  0  0  0  0  0  0  0  0  0
   10.6121   38.1911   31.6453 C   0  0  0  0  0  0  0  0  0  0  0  0
   12.9429   37.6853   32.0296 C   0  0  0  0  0  0  0  0  0  0  0  0
    9.6068   38.0860   30.6603 O   0  0  0  0  0  0  0  0  0  0  0  0
   11.5845   37.0184   31.6877 C   0  0  0  0  0  0  0  0  0  0  0  0
   13.4898   37.2162   33.3250 N   0  0  0  0  0  0  0  0  0  0  0  0
   11.6203   36.3066   30.4688 O   0  0  0  0  0  0  0  0  0  0  0  0
   14.4758   36.3263   33.5739 C   0  0  0  0  0  0  0  0  0  0  0  0
   13.1175   37.6306   34.5699 C   0  0  0  0  0  0  0  0  0  0  0  0
   15.2065   35.6138   32.6746 N   0  0  0  0  0  0  0  0  0  0  0  0
   14.6731   36.2267   34.9191 C   0  0  0  0  0  0  0  0  0  0  0  0
   13.8224   37.0450   35.5792 N   0  0  0  0  0  0  0  0  0  0  0  0
   16.1640   34.7596   33.1551 C   0  0  0  0  0  0  0  0  0  0  0  0
   15.6518   35.3489   35.4136 C   0  0  0  0  0  0  0  0  0  0  0  0
   16.3795   34.6310   34.5046 N   0  0  0  0  0  0  0  0  0  0  0  0
   15.9006   35.1931   36.8094 N   0  0  0  0  0  0  0  0  0  0  0  0
    9.0559   45.4846   33.7609 H   0  0  0  0  0  0  0  0  0  0  0  0
   11.8800   45.8024   32.8978 H   0  0  0  0  0  0  0  0  0  0  0  0
   10.7575   47.0047   33.2615 H   0  0  0  0  0  0  0  0  0  0  0  0
    9.5191   46.0957   31.3327 H   0  0  0  0  0  0  0  0  0  0  0  0
   10.5691   44.6597   31.1809 H   0  0  0  0  0  0  0  0  0  0  0  0
    9.5336   42.7420   30.2564 H   0  0  0  0  0  0  0  0  0  0  0  0
    7.0601   45.5858   32.3503 H   0  0  0  0  0  0  0  0  0  0  0  0
    7.5653   41.3880   29.7557 H   0  0  0  0  0  0  0  0  0  0  0  0
    5.0742   44.2279   31.8352 H   0  0  0  0  0  0  0  0  0  0  0  0
    5.3566   40.8841   28.7617 H   0  0  0  0  0  0  0  0  0  0  0  0
    5.6010   39.9763   30.3211 H   0  0  0  0  0  0  0  0  0  0  0  0
    3.9366   40.3641   29.7444 H   0  0  0  0  0  0  0  0  0  0  0  0
   11.3770   41.5515   31.4757 H   0  0  0  0  0  0  0  0  0  0  0  0
    9.8230   40.7073   31.7660 H   0  0  0  0  0  0  0  0  0  0  0  0
   11.7312   39.5351   30.3534 H   0  0  0  0  0  0  0  0  0  0  0  0
   10.1211   38.2669   32.6414 H   0  0  0  0  0  0  0  0  0  0  0  0
   13.6883   37.4712   31.2320 H   0  0  0  0  0  0  0  0  0  0  0  0
   10.0250   38.1786   29.7657 H   0  0  0  0  0  0  0  0  0  0  0  0
   11.2797   36.3118   32.4910 H   0  0  0  0  0  0  0  0  0  0  0  0
   11.9864   36.9109   29.7711 H   0  0  0  0  0  0  0  0  0  0  0  0
   12.3365   38.3595   34.7453 H   0  0  0  0  0  0  0  0  0  0  0  0
   16.7577   34.1795   32.4622 H   0  0  0  0  0  0  0  0  0  0  0  0
   16.6368   34.5316   37.1418 H   0  0  0  0  0  0  0  0  0  0  0  0
   15.3532   35.7351   37.5143 H   0  0  0  0  0  0  0  0  0  0  0  0
  1  2  2  0
  1  3  1  0
  3  4  1  0
  4  5  1  0
  6  1  1  0
  7  6  1  0
  6  8  1  0
  8  9  1  0
  9 10  2  0
 11  9  1  0
 10 12  1  0
 13 11  2  0
 12 14  2  0
 14 13  1  0
 14 15  1  0
 15 16  1  0
  4 17  2  0
  4 18  1  0
 19 18  1  0
 19 20  1  0
 20 21  1  0
 20 22  1  0
 21 23  1  0
 22 24  1  0
 22 25  1  0
 25 23  1  0
 23 26  1  0
 25 27  1  0
 28 26  1  0
 29 26  1  0
 30 28  2  0
 28 31  1  0
 32 29  2  0
 33 30  1  0
 31 34  2  0
 31 32  1  0
 35 33  2  0
 35 34  1  0
 34 36  1  0
  6 37  1  1
  7 38  1  0
  7 39  1  0
  8 40  1  0
  8 41  1  0
 10 42  1  0
 11 43  1  0
 12 44  1  0
 13 45  1  0
 16 46  1  0
 16 47  1  0
 16 48  1  0
 19 49  1  0
 19 50  1  0
 20 51  1  0
 22 52  1  0
 23 53  1  0
 24 54  1  0
 25 55  1  0
 27 56  1  0
 29 57  1  0
 33 58  1  0
 36 59  1  0
 36 60  1  0
M  CHG  1   5  -1
M  END
>  <EmbedRMS>  (175) 
0.08732052272109325

$$$$

     RDKit          3D

 60 63  0  0  0  0  0  0  0  0999 V2000
   10.2895   43.7707   33.7896 C   0  0  0  0  0  0  0  0  0  0  0  0
   11.4145   43.5857   34.3410 O   0  0  0  0  0  0  0  0  0  0  0  0
    9.3635   42.7337   33.7100 O   0  0  0  0  0  0  0  0  0  0  0  0
    9.8851   41.2348   34.2859 P   0  0  0  0  0  5  0  0  0  0  0  0
   10.3680   41.4678   35.8757 O   0  0  0  0  0  1  0  0  0  0  0  0
    9.9605   45.1140   33.2273 C   0  0  1  0  0  0  0  0  0  0  0  0
   11.0593   46.0380   33.5128 N   0  0  0  0  0  0  0  0  0  0  0  0
    9.7297   45.0503   31.6997 C   0  0  0  0  0  0  0  0  0  0  0  0
    8.5388   44.2060   31.3110 C   0  0  0  0  0  0  0  0  0  0  0  0
    7.2449   44.5636   31.7229 C   0  0  0  0  0  0  0  0  0  0  0  0
    8.7117   43.0581   30.5221 C   0  0  0  0  0  0  0  0  0  0  0  0
    6.1499   43.7632   31.3852 C   0  0  0  0  0  0  0  0  0  0  0  0
    7.6174   42.2558   30.1880 C   0  0  0  0  0  0  0  0  0  0  0  0
    6.3248   42.6017   30.6242 C   0  0  0  0  0  0  0  0  0  0  0  0
    5.1963   41.8249   30.3231 O   0  0  0  0  0  0  0  0  0  0  0  0
    5.2313   40.6149   29.5732 C   0  0  0  0  0  0  0  0  0  0  0  0
    8.8072   40.1922   34.2099 O   0  0  0  0  0  0  0  0  0  0  0  0
   11.2365   40.7907   33.3680 O   0  0  0  0  0  0  0  0  0  0  0  0
   10.9128   40.6823   31.9961 C   0  0  0  0  0  0  0  0  0  0  0  0
   11.5174   39.3771   31.4409 C   0  0  0  0  0  0  0  0  0  0  0  0
   12.7478   39.0866   32.0762 O   0  0  0  0  0  0  0  0  0  0  0  0
   10.6068   38.1848   31.6659 C   0  0  0  0  0  0  0  0  0  0  0  0
   12.9372   37.6809   32.0291 C   0  0  0  0  0  0  0  0  0  0  0  0
    9.6405   38.0889   30.6474 O   0  0  0  0  0  0  0  0  0  0  0  0
   11.5788   37.0132   31.7044 C   0  0  0  0  0  0  0  0  0  0  0  0
   13.4914   37.2179   33.3240 N   0  0  0  0  0  0  0  0  0  0  0  0
   11.6124   36.3390   30.4671 O   0  0  0  0  0  0  0  0  0  0  0  0
   14.4766   36.3271   33.5731 C   0  0  0  0  0  0  0  0  0  0  0  0
   13.1184   37.6315   34.5690 C   0  0  0  0  0  0  0  0  0  0  0  0
   15.2066   35.6138   32.6741 N   0  0  0  0  0  0  0  0  0  0  0  0
   14.6735   36.2273   34.9185 C   0  0  0  0  0  0  0  0  0  0  0  0
   13.8228   37.0455   35.5785 N   0  0  0  0  0  0  0  0  0  0  0  0
   16.1638   34.7593   33.1548 C   0  0  0  0  0  0  0  0  0  0  0  0
   15.6517   35.3490   35.4132 C   0  0  0  0  0  0  0  0  0  0  0  0
   16.3793   34.6308   34.5043 N   0  0  0  0  0  0  0  0  0  0  0  0
   15.9004   35.1932   36.8091 N   0  0  0  0  0  0  0  0  0  0  0  0
    9.0390   45.4866   33.7277 H   0  0  0  0  0  0  0  0  0  0  0  0
   11.1173   46.1735   34.5493 H   0  0  0  0  0  0  0  0  0  0  0  0
   10.8130   46.9783   33.1257 H   0  0  0  0  0  0  0  0  0  0  0  0
   10.6549   44.6755   31.2077 H   0  0  0  0  0  0  0  0  0  0  0  0
    9.5554   46.0778   31.3127 H   0  0  0  0  0  0  0  0  0  0  0  0
    7.0835   45.4587   32.3101 H   0  0  0  0  0  0  0  0  0  0  0  0
    9.6953   42.7786   30.1682 H   0  0  0  0  0  0  0  0  0  0  0  0
    5.1594   44.0454   31.7192 H   0  0  0  0  0  0  0  0  0  0  0  0
    7.7878   41.3701   29.5913 H   0  0  0  0  0  0  0  0  0  0  0  0
    5.6162   40.8107   28.5501 H   0  0  0  0  0  0  0  0  0  0  0  0
    4.2027   40.2076   29.4938 H   0  0  0  0  0  0  0  0  0  0  0  0
    5.8719   39.8663   30.0860 H   0  0  0  0  0  0  0  0  0  0  0  0
    9.8224   40.7088   31.7638 H   0  0  0  0  0  0  0  0  0  0  0  0
   11.3837   41.5393   31.4697 H   0  0  0  0  0  0  0  0  0  0  0  0
   11.6999   39.5031   30.3486 H   0  0  0  0  0  0  0  0  0  0  0  0
   10.1094   38.2740   32.6608 H   0  0  0  0  0  0  0  0  0  0  0  0
   13.6714   37.4592   31.2229 H   0  0  0  0  0  0  0  0  0  0  0  0
    8.9998   37.3882   30.9366 H   0  0  0  0  0  0  0  0  0  0  0  0
   11.2706   36.3044   32.5085 H   0  0  0  0  0  0  0  0  0  0  0  0
   12.1444   35.5138   30.6135 H   0  0  0  0  0  0  0  0  0  0  0  0
   12.3361   38.3590   34.7445 H   0  0  0  0  0  0  0  0  0  0  0  0
   16.7572   34.1787   32.4620 H   0  0  0  0  0  0  0  0  0  0  0  0
   16.6363   34.5314   37.1416 H   0  0  0  0  0  0  0  0  0  0  0  0
   15.3532   35.7355   37.5139 H   0  0  0  0  0  0  0  0  0  0  0  0
  1  2  2  0
  1  3  1  0
  3  4  1  0
  4  5  1  0
  6  1  1  0
  7  6  1  0
  6  8  1  0
  8  9  1  0
  9 10  2  0
 11  9  1  0
 10 12  1  0
 13 11  2  0
 12 14  2  0
 14 13  1  0
 14 15  1  0
 15 16  1  0
  4 17  2  0
  4 18  1  0
 19 18  1  0
 19 20  1  0
 20 21  1  0
 20 22  1  0
 21 23  1  0
 22 24  1  0
 22 25  1  0
 25 23  1  0
 23 26  1  0
 25 27  1  0
 28 26  1  0
 29 26  1  0
 30 28  2  0
 28 31  1  0
 32 29  2  0
 33 30  1  0
 31 34  2  0
 31 32  1  0
 35 33  2  0
 35 34  1  0
 34 36  1  0
  6 37  1  1
  7 38  1  0
  7 39  1  0
  8 40  1  0
  8 41  1  0
 10 42  1  0
 11 43  1  0
 12 44  1  0
 13 45  1  0
 16 46  1  0
 16 47  1  0
 16 48  1  0
 19 49  1  0
 19 50  1  0
 20 51  1  0
 22 52  1  0
 23 53  1  0
 24 54  1  0
 25 55  1  0
 27 56  1  0
 29 57  1  0
 33 58  1  0
 36 59  1  0
 36 60  1  0
M  CHG  1   5  -1
M  END
>  <EmbedRMS>  (176) 
0.08943403796248564

$$$$

     RDKit          3D

 60 63  0  0  0  0  0  0  0  0999 V2000
   10.2999   43.7682   33.7926 C   0  0  0  0  0  0  0  0  0  0  0  0
   11.4160   43.5824   34.3597 O   0  0  0  0  0  0  0  0  0  0  0  0
    9.3694   42.7352   33.7054 O   0  0  0  0  0  0  0  0  0  0  0  0
    9.8863   41.2351   34.2832 P   0  0  0  0  0  5  0  0  0  0  0  0
   10.3698   41.4669   35.8733 O   0  0  0  0  0  1  0  0  0  0  0  0
    9.9797   45.1073   33.2191 C   0  0  1  0  0  0  0  0  0  0  0  0
   11.0354   46.0791   33.5231 N   0  0  0  0  0  0  0  0  0  0  0  0
    9.6909   45.0376   31.6964 C   0  0  0  0  0  0  0  0  0  0  0  0
   10.8949   45.2579   30.8021 C   0  0  0  0  0  0  0  0  0  0  0  0
   12.0154   44.4152   30.8776 C   0  0  0  0  0  0  0  0  0  0  0  0
   10.8873   46.2934   29.8522 C   0  0  0  0  0  0  0  0  0  0  0  0
   13.1089   44.6061   30.0285 C   0  0  0  0  0  0  0  0  0  0  0  0
   11.9805   46.4839   29.0022 C   0  0  0  0  0  0  0  0  0  0  0  0
   13.0976   45.6456   29.0803 C   0  0  0  0  0  0  0  0  0  0  0  0
   14.1688   45.8779   28.2049 O   0  0  0  0  0  0  0  0  0  0  0  0
   15.3638   45.1044   28.1745 C   0  0  0  0  0  0  0  0  0  0  0  0
    8.8075   40.1933   34.2079 O   0  0  0  0  0  0  0  0  0  0  0  0
   11.2357   40.7942   33.3607 O   0  0  0  0  0  0  0  0  0  0  0  0
   10.9026   40.6733   31.9910 C   0  0  0  0  0  0  0  0  0  0  0  0
   11.5138   39.3713   31.4400 C   0  0  0  0  0  0  0  0  0  0  0  0
   12.7445   39.0853   32.0768 O   0  0  0  0  0  0  0  0  0  0  0  0
   10.6058   38.1792   31.6663 C   0  0  0  0  0  0  0  0  0  0  0  0
   12.9370   37.6801   32.0293 C   0  0  0  0  0  0  0  0  0  0  0  0
    9.6394   38.0831   30.6480 O   0  0  0  0  0  0  0  0  0  0  0  0
   11.5798   37.0099   31.7041 C   0  0  0  0  0  0  0  0  0  0  0  0
   13.4916   37.2179   33.3241 N   0  0  0  0  0  0  0  0  0  0  0  0
   11.6141   36.3372   30.4662 O   0  0  0  0  0  0  0  0  0  0  0  0
   14.4767   36.3270   33.5732 C   0  0  0  0  0  0  0  0  0  0  0  0
   13.1185   37.6315   34.5691 C   0  0  0  0  0  0  0  0  0  0  0  0
   15.2067   35.6138   32.6741 N   0  0  0  0  0  0  0  0  0  0  0  0
   14.6737   36.2273   34.9185 C   0  0  0  0  0  0  0  0  0  0  0  0
   13.8229   37.0455   35.5786 N   0  0  0  0  0  0  0  0  0  0  0  0
   16.1638   34.7592   33.1549 C   0  0  0  0  0  0  0  0  0  0  0  0
   15.6518   35.3490   35.4133 C   0  0  0  0  0  0  0  0  0  0  0  0
   16.3793   34.6308   34.5044 N   0  0  0  0  0  0  0  0  0  0  0  0
   15.9005   35.1932   36.8091 N   0  0  0  0  0  0  0  0  0  0  0  0
    9.0442   45.4465   33.7176 H   0  0  0  0  0  0  0  0  0  0  0  0
   11.9769   45.7174   33.2475 H   0  0  0  0  0  0  0  0  0  0  0  0
   11.0544   46.2450   34.5561 H   0  0  0  0  0  0  0  0  0  0  0  0
    8.9201   45.8065   31.4680 H   0  0  0  0  0  0  0  0  0  0  0  0
    9.2257   44.0634   31.4302 H   0  0  0  0  0  0  0  0  0  0  0  0
   12.0589   43.6292   31.6143 H   0  0  0  0  0  0  0  0  0  0  0  0
   10.0344   46.9549   29.7650 H   0  0  0  0  0  0  0  0  0  0  0  0
   13.9583   43.9432   30.1207 H   0  0  0  0  0  0  0  0  0  0  0  0
   11.9585   47.2871   28.2764 H   0  0  0  0  0  0  0  0  0  0  0  0
   15.8842   45.1672   29.1536 H   0  0  0  0  0  0  0  0  0  0  0  0
   15.1278   44.0462   27.9341 H   0  0  0  0  0  0  0  0  0  0  0  0
   16.0358   45.5059   27.3887 H   0  0  0  0  0  0  0  0  0  0  0  0
    9.8107   40.7001   31.7621 H   0  0  0  0  0  0  0  0  0  0  0  0
   11.3621   41.5193   31.4472 H   0  0  0  0  0  0  0  0  0  0  0  0
   11.6973   39.4948   30.3473 H   0  0  0  0  0  0  0  0  0  0  0  0
   10.1088   38.2674   32.6615 H   0  0  0  0  0  0  0  0  0  0  0  0
   13.6719   37.4601   31.2232 H   0  0  0  0  0  0  0  0  0  0  0  0
    9.0033   37.3770   30.9342 H   0  0  0  0  0  0  0  0  0  0  0  0
   11.2730   36.2998   32.5076 H   0  0  0  0  0  0  0  0  0  0  0  0
   12.1482   35.5131   30.6114 H   0  0  0  0  0  0  0  0  0  0  0  0
   12.3362   38.3589   34.7445 H   0  0  0  0  0  0  0  0  0  0  0  0
   16.7572   34.1786   32.4621 H   0  0  0  0  0  0  0  0  0  0  0  0
   15.3533   35.7355   37.5140 H   0  0  0  0  0  0  0  0  0  0  0  0
   16.6364   34.5313   37.1416 H   0  0  0  0  0  0  0  0  0  0  0  0
  1  2  2  0
  1  3  1  0
  3  4  1  0
  4  5  1  0
  6  1  1  0
  7  6  1  0
  6  8  1  0
  8  9  1  0
  9 10  2  0
 11  9  1  0
 10 12  1  0
 13 11  2  0
 12 14  2  0
 14 13  1  0
 14 15  1  0
 15 16  1  0
  4 17  2  0
  4 18  1  0
 19 18  1  0
 19 20  1  0
 20 21  1  0
 20 22  1  0
 21 23  1  0
 22 24  1  0
 22 25  1  0
 25 23  1  0
 23 26  1  0
 25 27  1  0
 28 26  1  0
 29 26  1  0
 30 28  2  0
 28 31  1  0
 32 29  2  0
 33 30  1  0
 31 34  2  0
 31 32  1  0
 35 33  2  0
 35 34  1  0
 34 36  1  0
  6 37  1  1
  7 38  1  0
  7 39  1  0
  8 40  1  0
  8 41  1  0
 10 42  1  0
 11 43  1  0
 12 44  1  0
 13 45  1  0
 16 46  1  0
 16 47  1  0
 16 48  1  0
 19 49  1  0
 19 50  1  0
 20 51  1  0
 22 52  1  0
 23 53  1  0
 24 54  1  0
 25 55  1  0
 27 56  1  0
 29 57  1  0
 33 58  1  0
 36 59  1  0
 36 60  1  0
M  CHG  1   5  -1
M  END
>  <EmbedRMS>  (177) 
0.0910170383986286

$$$$

     RDKit          3D

 60 63  0  0  0  0  0  0  0  0999 V2000
   10.2881   43.7718   33.8023 C   0  0  0  0  0  0  0  0  0  0  0  0
   11.4130   43.5866   34.3534 O   0  0  0  0  0  0  0  0  0  0  0  0
    9.3636   42.7342   33.7120 O   0  0  0  0  0  0  0  0  0  0  0  0
    9.8854   41.2345   34.2862 P   0  0  0  0  0  5  0  0  0  0  0  0
   10.3676   41.4662   35.8764 O   0  0  0  0  0  1  0  0  0  0  0  0
    9.9689   45.1017   33.2140 C   0  0  1  0  0  0  0  0  0  0  0  0
   11.0574   46.0377   33.5062 N   0  0  0  0  0  0  0  0  0  0  0  0
    9.7793   44.9513   31.6901 C   0  0  0  0  0  0  0  0  0  0  0  0
    9.2570   46.2167   31.0580 C   0  0  0  0  0  0  0  0  0  0  0  0
   10.1222   47.0775   30.3648 C   0  0  0  0  0  0  0  0  0  0  0  0
    7.9017   46.5594   31.1817 C   0  0  0  0  0  0  0  0  0  0  0  0
    9.6362   48.2587   29.7973 C   0  0  0  0  0  0  0  0  0  0  0  0
    7.4161   47.7409   30.6136 C   0  0  0  0  0  0  0  0  0  0  0  0
    8.2842   48.6013   29.9145 C   0  0  0  0  0  0  0  0  0  0  0  0
    7.8463   49.7976   29.3272 O   0  0  0  0  0  0  0  0  0  0  0  0
    6.5033   50.2688   29.3690 C   0  0  0  0  0  0  0  0  0  0  0  0
    8.8083   40.1912   34.2088 O   0  0  0  0  0  0  0  0  0  0  0  0
   11.2379   40.7933   33.3684 O   0  0  0  0  0  0  0  0  0  0  0  0
   10.9177   40.6907   31.9950 C   0  0  0  0  0  0  0  0  0  0  0  0
   11.5164   39.3810   31.4402 C   0  0  0  0  0  0  0  0  0  0  0  0
   12.7472   39.0869   32.0739 O   0  0  0  0  0  0  0  0  0  0  0  0
   10.6028   38.1895   31.6666 C   0  0  0  0  0  0  0  0  0  0  0  0
   12.9333   37.6803   32.0281 C   0  0  0  0  0  0  0  0  0  0  0  0
    9.6395   38.0780   30.6455 O   0  0  0  0  0  0  0  0  0  0  0  0
   11.5738   37.0159   31.7058 C   0  0  0  0  0  0  0  0  0  0  0  0
   13.4902   37.2181   33.3231 N   0  0  0  0  0  0  0  0  0  0  0  0
   11.6211   36.3379   30.4696 O   0  0  0  0  0  0  0  0  0  0  0  0
   14.4760   36.3275   33.5724 C   0  0  0  0  0  0  0  0  0  0  0  0
   13.1178   37.6318   34.5685 C   0  0  0  0  0  0  0  0  0  0  0  0
   15.2062   35.6140   32.6736 N   0  0  0  0  0  0  0  0  0  0  0  0
   14.6733   36.2278   34.9179 C   0  0  0  0  0  0  0  0  0  0  0  0
   13.8225   37.0459   35.5779 N   0  0  0  0  0  0  0  0  0  0  0  0
   16.1635   34.7595   33.1545 C   0  0  0  0  0  0  0  0  0  0  0  0
   15.6515   35.3494   35.4128 C   0  0  0  0  0  0  0  0  0  0  0  0
   16.3790   34.6311   34.5040 N   0  0  0  0  0  0  0  0  0  0  0  0
   15.9001   35.1935   36.8087 N   0  0  0  0  0  0  0  0  0  0  0  0
    9.0244   45.4683   33.6761 H   0  0  0  0  0  0  0  0  0  0  0  0
   11.1201   46.1577   34.5442 H   0  0  0  0  0  0  0  0  0  0  0  0
   10.7938   46.9817   33.1430 H   0  0  0  0  0  0  0  0  0  0  0  0
   10.7433   44.6522   31.2212 H   0  0  0  0  0  0  0  0  0  0  0  0
    9.0543   44.1341   31.4783 H   0  0  0  0  0  0  0  0  0  0  0  0
   11.1735   46.8368   30.2671 H   0  0  0  0  0  0  0  0  0  0  0  0
    7.2214   45.9106   31.7198 H   0  0  0  0  0  0  0  0  0  0  0  0
   10.3145   48.9133   29.2648 H   0  0  0  0  0  0  0  0  0  0  0  0
    6.3665   47.9762   30.7250 H   0  0  0  0  0  0  0  0  0  0  0  0
    5.8271   49.5392   28.8754 H   0  0  0  0  0  0  0  0  0  0  0  0
    6.4408   51.2344   28.8267 H   0  0  0  0  0  0  0  0  0  0  0  0
    6.1882   50.4310   30.4215 H   0  0  0  0  0  0  0  0  0  0  0  0
    9.8296   40.7403   31.7563 H   0  0  0  0  0  0  0  0  0  0  0  0
   11.3976   41.5453   31.4718 H   0  0  0  0  0  0  0  0  0  0  0  0
   11.6977   39.5052   30.3476 H   0  0  0  0  0  0  0  0  0  0  0  0
   10.1084   38.2634   32.6648 H   0  0  0  0  0  0  0  0  0  0  0  0
   13.6653   37.4552   31.2207 H   0  0  0  0  0  0  0  0  0  0  0  0
    8.8967   38.6908   30.8844 H   0  0  0  0  0  0  0  0  0  0  0  0
   11.2845   36.3065   32.5176 H   0  0  0  0  0  0  0  0  0  0  0  0
   10.8523   35.7098   30.4591 H   0  0  0  0  0  0  0  0  0  0  0  0
   12.3353   38.3590   34.7441 H   0  0  0  0  0  0  0  0  0  0  0  0
   16.7569   34.1789   32.4618 H   0  0  0  0  0  0  0  0  0  0  0  0
   15.3529   35.7359   37.5136 H   0  0  0  0  0  0  0  0  0  0  0  0
   16.6359   34.5317   37.1412 H   0  0  0  0  0  0  0  0  0  0  0  0
  1  2  2  0
  1  3  1  0
  3  4  1  0
  4  5  1  0
  6  1  1  0
  7  6  1  0
  6  8  1  0
  8  9  1  0
  9 10  2  0
 11  9  1  0
 10 12  1  0
 13 11  2  0
 12 14  2  0
 14 13  1  0
 14 15  1  0
 15 16  1  0
  4 17  2  0
  4 18  1  0
 19 18  1  0
 19 20  1  0
 20 21  1  0
 20 22  1  0
 21 23  1  0
 22 24  1  0
 22 25  1  0
 25 23  1  0
 23 26  1  0
 25 27  1  0
 28 26  1  0
 29 26  1  0
 30 28  2  0
 28 31  1  0
 32 29  2  0
 33 30  1  0
 31 34  2  0
 31 32  1  0
 35 33  2  0
 35 34  1  0
 34 36  1  0
  6 37  1  1
  7 38  1  0
  7 39  1  0
  8 40  1  0
  8 41  1  0
 10 42  1  0
 11 43  1  0
 12 44  1  0
 13 45  1  0
 16 46  1  0
 16 47  1  0
 16 48  1  0
 19 49  1  0
 19 50  1  0
 20 51  1  0
 22 52  1  0
 23 53  1  0
 24 54  1  0
 25 55  1  0
 27 56  1  0
 29 57  1  0
 33 58  1  0
 36 59  1  0
 36 60  1  0
M  CHG  1   5  -1
M  END
>  <EmbedRMS>  (178) 
0.08938039300755542

$$$$

     RDKit          3D

 60 63  0  0  0  0  0  0  0  0999 V2000
   10.2940   43.7721   33.7964 C   0  0  0  0  0  0  0  0  0  0  0  0
   11.4139   43.5898   34.3580 O   0  0  0  0  0  0  0  0  0  0  0  0
    9.3670   42.7360   33.7088 O   0  0  0  0  0  0  0  0  0  0  0  0
    9.8870   41.2360   34.2839 P   0  0  0  0  0  5  0  0  0  0  0  0
   10.3707   41.4671   35.8740 O   0  0  0  0  0  1  0  0  0  0  0  0
    9.9762   45.1032   33.2097 C   0  0  1  0  0  0  0  0  0  0  0  0
   11.0440   46.0545   33.5253 N   0  0  0  0  0  0  0  0  0  0  0  0
    9.7503   45.0008   31.6774 C   0  0  0  0  0  0  0  0  0  0  0  0
   10.9971   45.2128   30.8403 C   0  0  0  0  0  0  0  0  0  0  0  0
   12.1342   44.4070   31.0156 C   0  0  0  0  0  0  0  0  0  0  0  0
   11.0173   46.2085   29.8491 C   0  0  0  0  0  0  0  0  0  0  0  0
   13.2699   44.5968   30.2235 C   0  0  0  0  0  0  0  0  0  0  0  0
   12.1533   46.3982   29.0571 C   0  0  0  0  0  0  0  0  0  0  0  0
   13.2865   45.5977   29.2348 C   0  0  0  0  0  0  0  0  0  0  0  0
   14.4009   45.8273   28.4143 O   0  0  0  0  0  0  0  0  0  0  0  0
   15.6166   45.0893   28.4853 C   0  0  0  0  0  0  0  0  0  0  0  0
    8.8090   40.1934   34.2084 O   0  0  0  0  0  0  0  0  0  0  0  0
   11.2368   40.7962   33.3611 O   0  0  0  0  0  0  0  0  0  0  0  0
   10.9051   40.6775   31.9909 C   0  0  0  0  0  0  0  0  0  0  0  0
   11.5135   39.3733   31.4398 C   0  0  0  0  0  0  0  0  0  0  0  0
   12.7444   39.0848   32.0751 O   0  0  0  0  0  0  0  0  0  0  0  0
   10.6038   38.1825   31.6674 C   0  0  0  0  0  0  0  0  0  0  0  0
   12.9343   37.6788   32.0285 C   0  0  0  0  0  0  0  0  0  0  0  0
    9.6370   38.0880   30.6491 O   0  0  0  0  0  0  0  0  0  0  0  0
   11.5768   37.0106   31.7054 C   0  0  0  0  0  0  0  0  0  0  0  0
   13.4910   37.2177   33.3235 N   0  0  0  0  0  0  0  0  0  0  0  0
   11.6247   36.3361   30.4676 O   0  0  0  0  0  0  0  0  0  0  0  0
   14.4765   36.3271   33.5728 C   0  0  0  0  0  0  0  0  0  0  0  0
   13.1182   37.6315   34.5687 C   0  0  0  0  0  0  0  0  0  0  0  0
   15.2066   35.6137   32.6739 N   0  0  0  0  0  0  0  0  0  0  0  0
   14.6736   36.2276   34.9182 C   0  0  0  0  0  0  0  0  0  0  0  0
   13.8228   37.0457   35.5782 N   0  0  0  0  0  0  0  0  0  0  0  0
   16.1638   34.7592   33.1548 C   0  0  0  0  0  0  0  0  0  0  0  0
   15.6517   35.3492   35.4131 C   0  0  0  0  0  0  0  0  0  0  0  0
   16.3793   34.6309   34.5043 N   0  0  0  0  0  0  0  0  0  0  0  0
   15.9003   35.1934   36.8090 N   0  0  0  0  0  0  0  0  0  0  0  0
    9.0285   45.4512   33.6801 H   0  0  0  0  0  0  0  0  0  0  0  0
   10.7871   46.9814   33.1136 H   0  0  0  0  0  0  0  0  0  0  0  0
   11.0596   46.2028   34.5613 H   0  0  0  0  0  0  0  0  0  0  0  0
    9.3021   44.0197   31.4070 H   0  0  0  0  0  0  0  0  0  0  0  0
    8.9885   45.7631   31.4022 H   0  0  0  0  0  0  0  0  0  0  0  0
   12.1537   43.6408   31.7744 H   0  0  0  0  0  0  0  0  0  0  0  0
   10.1536   46.8409   29.6857 H   0  0  0  0  0  0  0  0  0  0  0  0
   14.1291   43.9614   30.3893 H   0  0  0  0  0  0  0  0  0  0  0  0
   12.1524   47.1711   28.2990 H   0  0  0  0  0  0  0  0  0  0  0  0
   15.4246   44.0160   28.2744 H   0  0  0  0  0  0  0  0  0  0  0  0
   16.3229   45.4800   27.7245 H   0  0  0  0  0  0  0  0  0  0  0  0
   16.0757   45.2055   29.4897 H   0  0  0  0  0  0  0  0  0  0  0  0
   11.3663   41.5261   31.4494 H   0  0  0  0  0  0  0  0  0  0  0  0
    9.8134   40.7065   31.7614 H   0  0  0  0  0  0  0  0  0  0  0  0
   11.6962   39.4963   30.3470 H   0  0  0  0  0  0  0  0  0  0  0  0
   10.1086   38.2716   32.6635 H   0  0  0  0  0  0  0  0  0  0  0  0
   13.6676   37.4559   31.2216 H   0  0  0  0  0  0  0  0  0  0  0  0
    8.9779   37.4109   30.9526 H   0  0  0  0  0  0  0  0  0  0  0  0
   11.2879   36.3007   32.5168 H   0  0  0  0  0  0  0  0  0  0  0  0
   10.8714   35.6895   30.4646 H   0  0  0  0  0  0  0  0  0  0  0  0
   12.3356   38.3586   34.7441 H   0  0  0  0  0  0  0  0  0  0  0  0
   16.7572   34.1786   32.4621 H   0  0  0  0  0  0  0  0  0  0  0  0
   15.3531   35.7357   37.5138 H   0  0  0  0  0  0  0  0  0  0  0  0
   16.6361   34.5315   37.1416 H   0  0  0  0  0  0  0  0  0  0  0  0
  1  2  2  0
  1  3  1  0
  3  4  1  0
  4  5  1  0
  6  1  1  0
  7  6  1  0
  6  8  1  0
  8  9  1  0
  9 10  2  0
 11  9  1  0
 10 12  1  0
 13 11  2  0
 12 14  2  0
 14 13  1  0
 14 15  1  0
 15 16  1  0
  4 17  2  0
  4 18  1  0
 19 18  1  0
 19 20  1  0
 20 21  1  0
 20 22  1  0
 21 23  1  0
 22 24  1  0
 22 25  1  0
 25 23  1  0
 23 26  1  0
 25 27  1  0
 28 26  1  0
 29 26  1  0
 30 28  2  0
 28 31  1  0
 32 29  2  0
 33 30  1  0
 31 34  2  0
 31 32  1  0
 35 33  2  0
 35 34  1  0
 34 36  1  0
  6 37  1  1
  7 38  1  0
  7 39  1  0
  8 40  1  0
  8 41  1  0
 10 42  1  0
 11 43  1  0
 12 44  1  0
 13 45  1  0
 16 46  1  0
 16 47  1  0
 16 48  1  0
 19 49  1  0
 19 50  1  0
 20 51  1  0
 22 52  1  0
 23 53  1  0
 24 54  1  0
 25 55  1  0
 27 56  1  0
 29 57  1  0
 33 58  1  0
 36 59  1  0
 36 60  1  0
M  CHG  1   5  -1
M  END
>  <EmbedRMS>  (179) 
0.08982207415317224

$$$$

     RDKit          3D

 60 63  0  0  0  0  0  0  0  0999 V2000
   10.2871   43.7692   33.7895 C   0  0  0  0  0  0  0  0  0  0  0  0
   11.4140   43.5805   34.3360 O   0  0  0  0  0  0  0  0  0  0  0  0
    9.3643   42.7312   33.6953 O   0  0  0  0  0  0  0  0  0  0  0  0
    9.8823   41.2338   34.2826 P   0  0  0  0  0  5  0  0  0  0  0  0
   10.3619   41.4721   35.8732 O   0  0  0  0  0  1  0  0  0  0  0  0
    9.9371   45.1298   33.2923 C   0  0  1  0  0  0  0  0  0  0  0  0
   11.0773   46.0315   33.4641 N   0  0  0  0  0  0  0  0  0  0  0  0
    9.4244   45.1276   31.8315 C   0  0  0  0  0  0  0  0  0  0  0  0
   10.2828   44.3617   30.8481 C   0  0  0  0  0  0  0  0  0  0  0  0
   11.6142   44.7360   30.6027 C   0  0  0  0  0  0  0  0  0  0  0  0
    9.7214   43.3141   30.0981 C   0  0  0  0  0  0  0  0  0  0  0  0
   12.3823   44.0464   29.6592 C   0  0  0  0  0  0  0  0  0  0  0  0
   10.4848   42.6364   29.1435 C   0  0  0  0  0  0  0  0  0  0  0  0
   11.8211   42.9855   28.9239 C   0  0  0  0  0  0  0  0  0  0  0  0
   12.5521   42.2586   27.9728 O   0  0  0  0  0  0  0  0  0  0  0  0
   13.9230   42.4892   27.6655 C   0  0  0  0  0  0  0  0  0  0  0  0
    8.8045   40.1915   34.2086 O   0  0  0  0  0  0  0  0  0  0  0  0
   11.2364   40.7804   33.3754 O   0  0  0  0  0  0  0  0  0  0  0  0
   10.9267   40.6863   32.0003 C   0  0  0  0  0  0  0  0  0  0  0  0
   11.5194   39.3783   31.4412 C   0  0  0  0  0  0  0  0  0  0  0  0
   12.7506   39.0839   32.0723 O   0  0  0  0  0  0  0  0  0  0  0  0
   10.6053   38.1890   31.6677 C   0  0  0  0  0  0  0  0  0  0  0  0
   12.9349   37.6776   32.0278 C   0  0  0  0  0  0  0  0  0  0  0  0
    9.6388   38.0953   30.6490 O   0  0  0  0  0  0  0  0  0  0  0  0
   11.5754   37.0137   31.7059 C   0  0  0  0  0  0  0  0  0  0  0  0
   13.4908   37.2169   33.3232 N   0  0  0  0  0  0  0  0  0  0  0  0
   11.6218   36.3377   30.4686 O   0  0  0  0  0  0  0  0  0  0  0  0
   14.4766   36.3268   33.5728 C   0  0  0  0  0  0  0  0  0  0  0  0
   13.1181   37.6312   34.5683 C   0  0  0  0  0  0  0  0  0  0  0  0
   15.2067   35.6134   32.6740 N   0  0  0  0  0  0  0  0  0  0  0  0
   14.6736   36.2275   34.9182 C   0  0  0  0  0  0  0  0  0  0  0  0
   13.8227   37.0457   35.5780 N   0  0  0  0  0  0  0  0  0  0  0  0
   16.1640   34.7591   33.1549 C   0  0  0  0  0  0  0  0  0  0  0  0
   15.6518   35.3492   35.4132 C   0  0  0  0  0  0  0  0  0  0  0  0
   16.3794   34.6309   34.5044 N   0  0  0  0  0  0  0  0  0  0  0  0
   15.9003   35.1934   36.8091 N   0  0  0  0  0  0  0  0  0  0  0  0
    9.1037   45.5033   33.9299 H   0  0  0  0  0  0  0  0  0  0  0  0
   10.8071   46.9808   33.1178 H   0  0  0  0  0  0  0  0  0  0  0  0
   11.2565   46.1520   34.4884 H   0  0  0  0  0  0  0  0  0  0  0  0
    9.3208   46.1736   31.4704 H   0  0  0  0  0  0  0  0  0  0  0  0
    8.3938   44.7083   31.8366 H   0  0  0  0  0  0  0  0  0  0  0  0
   12.0607   45.5674   31.1299 H   0  0  0  0  0  0  0  0  0  0  0  0
    8.6913   43.0173   30.2511 H   0  0  0  0  0  0  0  0  0  0  0  0
   13.4078   44.3521   29.5032 H   0  0  0  0  0  0  0  0  0  0  0  0
   10.0395   41.8249   28.5819 H   0  0  0  0  0  0  0  0  0  0  0  0
   14.0582   43.5189   27.2723 H   0  0  0  0  0  0  0  0  0  0  0  0
   14.2468   41.7669   26.8885 H   0  0  0  0  0  0  0  0  0  0  0  0
   14.5473   42.3405   28.5718 H   0  0  0  0  0  0  0  0  0  0  0  0
   11.4330   41.5332   31.4961 H   0  0  0  0  0  0  0  0  0  0  0  0
    9.8411   40.7443   31.7489 H   0  0  0  0  0  0  0  0  0  0  0  0
   11.6993   39.5059   30.3484 H   0  0  0  0  0  0  0  0  0  0  0  0
   10.1098   38.2798   32.6633 H   0  0  0  0  0  0  0  0  0  0  0  0
   13.6671   37.4511   31.2209 H   0  0  0  0  0  0  0  0  0  0  0  0
    8.9773   37.4209   30.9535 H   0  0  0  0  0  0  0  0  0  0  0  0
   11.2847   36.3053   32.5180 H   0  0  0  0  0  0  0  0  0  0  0  0
   10.8660   35.6941   30.4657 H   0  0  0  0  0  0  0  0  0  0  0  0
   12.3355   38.3583   34.7435 H   0  0  0  0  0  0  0  0  0  0  0  0
   16.7575   34.1784   32.4623 H   0  0  0  0  0  0  0  0  0  0  0  0
   16.6361   34.5316   37.1417 H   0  0  0  0  0  0  0  0  0  0  0  0
   15.3530   35.7358   37.5138 H   0  0  0  0  0  0  0  0  0  0  0  0
  1  2  2  0
  1  3  1  0
  3  4  1  0
  4  5  1  0
  6  1  1  0
  7  6  1  0
  6  8  1  0
  8  9  1  0
  9 10  2  0
 11  9  1  0
 10 12  1  0
 13 11  2  0
 12 14  2  0
 14 13  1  0
 14 15  1  0
 15 16  1  0
  4 17  2  0
  4 18  1  0
 19 18  1  0
 19 20  1  0
 20 21  1  0
 20 22  1  0
 21 23  1  0
 22 24  1  0
 22 25  1  0
 25 23  1  0
 23 26  1  0
 25 27  1  0
 28 26  1  0
 29 26  1  0
 30 28  2  0
 28 31  1  0
 32 29  2  0
 33 30  1  0
 31 34  2  0
 31 32  1  0
 35 33  2  0
 35 34  1  0
 34 36  1  0
  6 37  1  1
  7 38  1  0
  7 39  1  0
  8 40  1  0
  8 41  1  0
 10 42  1  0
 11 43  1  0
 12 44  1  0
 13 45  1  0
 16 46  1  0
 16 47  1  0
 16 48  1  0
 19 49  1  0
 19 50  1  0
 20 51  1  0
 22 52  1  0
 23 53  1  0
 24 54  1  0
 25 55  1  0
 27 56  1  0
 29 57  1  0
 33 58  1  0
 36 59  1  0
 36 60  1  0
M  CHG  1   5  -1
M  END
>  <EmbedRMS>  (180) 
0.09133028229780205

$$$$

     RDKit          3D

 60 63  0  0  0  0  0  0  0  0999 V2000
   10.2867   43.7698   33.7823 C   0  0  0  0  0  0  0  0  0  0  0  0
   11.4111   43.5817   34.3345 O   0  0  0  0  0  0  0  0  0  0  0  0
    9.3641   42.7313   33.6892 O   0  0  0  0  0  0  0  0  0  0  0  0
    9.8821   41.2347   34.2807 P   0  0  0  0  0  5  0  0  0  0  0  0
   10.3611   41.4744   35.8714 O   0  0  0  0  0  1  0  0  0  0  0  0
    9.9270   45.1415   33.3255 C   0  0  1  0  0  0  0  0  0  0  0  0
   11.0854   46.0271   33.4496 N   0  0  0  0  0  0  0  0  0  0  0  0
    9.2649   45.2063   31.9265 C   0  0  0  0  0  0  0  0  0  0  0  0
   10.0432   44.5417   30.8165 C   0  0  0  0  0  0  0  0  0  0  0  0
    9.6283   43.2984   30.3148 C   0  0  0  0  0  0  0  0  0  0  0  0
   11.1366   45.1881   30.2188 C   0  0  0  0  0  0  0  0  0  0  0  0
   10.3170   42.6930   29.2597 C   0  0  0  0  0  0  0  0  0  0  0  0
   11.8341   44.5762   29.1731 C   0  0  0  0  0  0  0  0  0  0  0  0
   11.4387   43.3235   28.6907 C   0  0  0  0  0  0  0  0  0  0  0  0
   12.1803   42.7433   27.6510 O   0  0  0  0  0  0  0  0  0  0  0  0
   11.9120   41.4611   27.0926 C   0  0  0  0  0  0  0  0  0  0  0  0
    8.8045   40.1920   34.2080 O   0  0  0  0  0  0  0  0  0  0  0  0
   11.2367   40.7796   33.3749 O   0  0  0  0  0  0  0  0  0  0  0  0
   10.9268   40.6830   32.0000 C   0  0  0  0  0  0  0  0  0  0  0  0
   11.5211   39.3766   31.4414 C   0  0  0  0  0  0  0  0  0  0  0  0
   12.7518   39.0842   32.0741 O   0  0  0  0  0  0  0  0  0  0  0  0
   10.6080   38.1862   31.6665 C   0  0  0  0  0  0  0  0  0  0  0  0
   12.9380   37.6787   32.0287 C   0  0  0  0  0  0  0  0  0  0  0  0
    9.6417   38.0911   30.6478 O   0  0  0  0  0  0  0  0  0  0  0  0
   11.5786   37.0132   31.7046 C   0  0  0  0  0  0  0  0  0  0  0  0
   13.4914   37.2168   33.3239 N   0  0  0  0  0  0  0  0  0  0  0  0
   11.6112   36.3390   30.4672 O   0  0  0  0  0  0  0  0  0  0  0  0
   14.4768   36.3265   33.5732 C   0  0  0  0  0  0  0  0  0  0  0  0
   13.1184   37.6310   34.5688 C   0  0  0  0  0  0  0  0  0  0  0  0
   15.2069   35.6133   32.6743 N   0  0  0  0  0  0  0  0  0  0  0  0
   14.6737   36.2271   34.9186 C   0  0  0  0  0  0  0  0  0  0  0  0
   13.8228   37.0454   35.5785 N   0  0  0  0  0  0  0  0  0  0  0  0
   16.1641   34.7590   33.1551 C   0  0  0  0  0  0  0  0  0  0  0  0
   15.6519   35.3490   35.4134 C   0  0  0  0  0  0  0  0  0  0  0  0
   16.3795   34.6307   34.5046 N   0  0  0  0  0  0  0  0  0  0  0  0
   15.9005   35.1932   36.8093 N   0  0  0  0  0  0  0  0  0  0  0  0
    9.1645   45.5083   34.0473 H   0  0  0  0  0  0  0  0  0  0  0  0
   11.8499   45.7040   32.8145 H   0  0  0  0  0  0  0  0  0  0  0  0
   10.8125   46.9931   33.1556 H   0  0  0  0  0  0  0  0  0  0  0  0
    8.2540   44.7470   31.9986 H   0  0  0  0  0  0  0  0  0  0  0  0
    9.0870   46.2696   31.6545 H   0  0  0  0  0  0  0  0  0  0  0  0
    8.7698   42.7943   30.7409 H   0  0  0  0  0  0  0  0  0  0  0  0
   11.4432   46.1714   30.5514 H   0  0  0  0  0  0  0  0  0  0  0  0
    9.9776   41.7292   28.9054 H   0  0  0  0  0  0  0  0  0  0  0  0
   12.6839   45.0808   28.7312 H   0  0  0  0  0  0  0  0  0  0  0  0
   11.9903   40.6790   27.8773 H   0  0  0  0  0  0  0  0  0  0  0  0
   12.6591   41.2467   26.3013 H   0  0  0  0  0  0  0  0  0  0  0  0
   10.8989   41.4468   26.6383 H   0  0  0  0  0  0  0  0  0  0  0  0
   11.4304   41.5305   31.4925 H   0  0  0  0  0  0  0  0  0  0  0  0
    9.8405   40.7316   31.7515 H   0  0  0  0  0  0  0  0  0  0  0  0
   11.7019   39.5042   30.3488 H   0  0  0  0  0  0  0  0  0  0  0  0
   10.1106   38.2764   32.6612 H   0  0  0  0  0  0  0  0  0  0  0  0
   13.6718   37.4547   31.2226 H   0  0  0  0  0  0  0  0  0  0  0  0
    9.0029   37.3880   30.9353 H   0  0  0  0  0  0  0  0  0  0  0  0
   11.2697   36.3047   32.5088 H   0  0  0  0  0  0  0  0  0  0  0  0
   12.1416   35.5128   30.6138 H   0  0  0  0  0  0  0  0  0  0  0  0
   12.3361   38.3585   34.7439 H   0  0  0  0  0  0  0  0  0  0  0  0
   16.7576   34.1784   32.4624 H   0  0  0  0  0  0  0  0  0  0  0  0
   15.3532   35.7355   37.5141 H   0  0  0  0  0  0  0  0  0  0  0  0
   16.6364   34.5314   37.1419 H   0  0  0  0  0  0  0  0  0  0  0  0
  1  2  2  0
  1  3  1  0
  3  4  1  0
  4  5  1  0
  6  1  1  0
  7  6  1  0
  6  8  1  0
  8  9  1  0
  9 10  2  0
 11  9  1  0
 10 12  1  0
 13 11  2  0
 12 14  2  0
 14 13  1  0
 14 15  1  0
 15 16  1  0
  4 17  2  0
  4 18  1  0
 19 18  1  0
 19 20  1  0
 20 21  1  0
 20 22  1  0
 21 23  1  0
 22 24  1  0
 22 25  1  0
 25 23  1  0
 23 26  1  0
 25 27  1  0
 28 26  1  0
 29 26  1  0
 30 28  2  0
 28 31  1  0
 32 29  2  0
 33 30  1  0
 31 34  2  0
 31 32  1  0
 35 33  2  0
 35 34  1  0
 34 36  1  0
  6 37  1  1
  7 38  1  0
  7 39  1  0
  8 40  1  0
  8 41  1  0
 10 42  1  0
 11 43  1  0
 12 44  1  0
 13 45  1  0
 16 46  1  0
 16 47  1  0
 16 48  1  0
 19 49  1  0
 19 50  1  0
 20 51  1  0
 22 52  1  0
 23 53  1  0
 24 54  1  0
 25 55  1  0
 27 56  1  0
 29 57  1  0
 33 58  1  0
 36 59  1  0
 36 60  1  0
M  CHG  1   5  -1
M  END
>  <EmbedRMS>  (181) 
0.09279148509702997

$$$$

     RDKit          3D

 60 63  0  0  0  0  0  0  0  0999 V2000
   10.2869   43.7693   33.7899 C   0  0  0  0  0  0  0  0  0  0  0  0
   11.4139   43.5805   34.3362 O   0  0  0  0  0  0  0  0  0  0  0  0
    9.3640   42.7313   33.6958 O   0  0  0  0  0  0  0  0  0  0  0  0
    9.8816   41.2342   34.2842 P   0  0  0  0  0  5  0  0  0  0  0  0
   10.3608   41.4726   35.8747 O   0  0  0  0  0  1  0  0  0  0  0  0
    9.9371   45.1297   33.2921 C   0  0  1  0  0  0  0  0  0  0  0  0
   11.0776   46.0312   33.4631 N   0  0  0  0  0  0  0  0  0  0  0  0
    9.4237   45.1270   31.8314 C   0  0  0  0  0  0  0  0  0  0  0  0
   10.2760   44.3524   30.8493 C   0  0  0  0  0  0  0  0  0  0  0  0
    9.7051   43.3105   30.0983 C   0  0  0  0  0  0  0  0  0  0  0  0
   11.6118   44.7125   30.6066 C   0  0  0  0  0  0  0  0  0  0  0  0
   10.4634   42.6241   29.1459 C   0  0  0  0  0  0  0  0  0  0  0  0
   12.3746   44.0144   29.6651 C   0  0  0  0  0  0  0  0  0  0  0  0
   11.8039   42.9588   28.9292 C   0  0  0  0  0  0  0  0  0  0  0  0
   12.5295   42.2231   27.9808 O   0  0  0  0  0  0  0  0  0  0  0  0
   13.9042   42.4372   27.6784 C   0  0  0  0  0  0  0  0  0  0  0  0
    8.8042   40.1915   34.2093 O   0  0  0  0  0  0  0  0  0  0  0  0
   11.2360   40.7802   33.3786 O   0  0  0  0  0  0  0  0  0  0  0  0
   10.9279   40.6912   32.0034 C   0  0  0  0  0  0  0  0  0  0  0  0
   11.5299   39.3910   31.4394 C   0  0  0  0  0  0  0  0  0  0  0  0
   12.7543   39.0901   32.0824 O   0  0  0  0  0  0  0  0  0  0  0  0
   10.6128   38.1940   31.6459 C   0  0  0  0  0  0  0  0  0  0  0  0
   12.9433   37.6839   32.0291 C   0  0  0  0  0  0  0  0  0  0  0  0
    9.6080   38.0893   30.6603 O   0  0  0  0  0  0  0  0  0  0  0  0
   11.5837   37.0195   31.6881 C   0  0  0  0  0  0  0  0  0  0  0  0
   13.4897   37.2154   33.3248 N   0  0  0  0  0  0  0  0  0  0  0  0
   11.6185   36.3073   30.4693 O   0  0  0  0  0  0  0  0  0  0  0  0
   14.4759   36.3259   33.5739 C   0  0  0  0  0  0  0  0  0  0  0  0
   13.1175   37.6304   34.5696 C   0  0  0  0  0  0  0  0  0  0  0  0
   15.2066   35.6135   32.6747 N   0  0  0  0  0  0  0  0  0  0  0  0
   14.6732   36.2266   34.9191 C   0  0  0  0  0  0  0  0  0  0  0  0
   13.8224   37.0450   35.5791 N   0  0  0  0  0  0  0  0  0  0  0  0
   16.1642   34.7594   33.1552 C   0  0  0  0  0  0  0  0  0  0  0  0
   15.6518   35.3489   35.4137 C   0  0  0  0  0  0  0  0  0  0  0  0
   16.3797   34.6309   34.5047 N   0  0  0  0  0  0  0  0  0  0  0  0
   15.9006   35.1931   36.8095 N   0  0  0  0  0  0  0  0  0  0  0  0
    9.1042   45.5038   33.9299 H   0  0  0  0  0  0  0  0  0  0  0  0
   10.8076   46.9804   33.1164 H   0  0  0  0  0  0  0  0  0  0  0  0
   11.2572   46.1521   34.4873 H   0  0  0  0  0  0  0  0  0  0  0  0
    9.3265   46.1724   31.4672 H   0  0  0  0  0  0  0  0  0  0  0  0
    8.3905   44.7143   31.8384 H   0  0  0  0  0  0  0  0  0  0  0  0
    8.6717   43.0246   30.2493 H   0  0  0  0  0  0  0  0  0  0  0  0
   12.0660   45.5390   31.1350 H   0  0  0  0  0  0  0  0  0  0  0  0
   10.0110   41.8167   28.5841 H   0  0  0  0  0  0  0  0  0  0  0  0
   13.4037   44.3089   29.5113 H   0  0  0  0  0  0  0  0  0  0  0  0
   14.5234   42.2819   28.5872 H   0  0  0  0  0  0  0  0  0  0  0  0
   14.0530   43.4648   27.2849 H   0  0  0  0  0  0  0  0  0  0  0  0
   14.2222   41.7104   26.9032 H   0  0  0  0  0  0  0  0  0  0  0  0
   11.4285   41.5445   31.5045 H   0  0  0  0  0  0  0  0  0  0  0  0
    9.8422   40.7425   31.7512 H   0  0  0  0  0  0  0  0  0  0  0  0
   11.7327   39.5387   30.3539 H   0  0  0  0  0  0  0  0  0  0  0  0
   10.1216   38.2710   32.6416 H   0  0  0  0  0  0  0  0  0  0  0  0
   13.6880   37.4674   31.2315 H   0  0  0  0  0  0  0  0  0  0  0  0
   10.0264   38.1844   29.7661 H   0  0  0  0  0  0  0  0  0  0  0  0
   11.2781   36.3136   32.4917 H   0  0  0  0  0  0  0  0  0  0  0  0
   11.9839   36.9115   29.7711 H   0  0  0  0  0  0  0  0  0  0  0  0
   12.3364   38.3592   34.7448 H   0  0  0  0  0  0  0  0  0  0  0  0
   16.7579   34.1793   32.4624 H   0  0  0  0  0  0  0  0  0  0  0  0
   15.3532   35.7352   37.5144 H   0  0  0  0  0  0  0  0  0  0  0  0
   16.6368   34.5316   37.1420 H   0  0  0  0  0  0  0  0  0  0  0  0
  1  2  2  0
  1  3  1  0
  3  4  1  0
  4  5  1  0
  6  1  1  0
  7  6  1  0
  6  8  1  0
  8  9  1  0
  9 10  2  0
 11  9  1  0
 10 12  1  0
 13 11  2  0
 12 14  2  0
 14 13  1  0
 14 15  1  0
 15 16  1  0
  4 17  2  0
  4 18  1  0
 19 18  1  0
 19 20  1  0
 20 21  1  0
 20 22  1  0
 21 23  1  0
 22 24  1  0
 22 25  1  0
 25 23  1  0
 23 26  1  0
 25 27  1  0
 28 26  1  0
 29 26  1  0
 30 28  2  0
 28 31  1  0
 32 29  2  0
 33 30  1  0
 31 34  2  0
 31 32  1  0
 35 33  2  0
 35 34  1  0
 34 36  1  0
  6 37  1  1
  7 38  1  0
  7 39  1  0
  8 40  1  0
  8 41  1  0
 10 42  1  0
 11 43  1  0
 12 44  1  0
 13 45  1  0
 16 46  1  0
 16 47  1  0
 16 48  1  0
 19 49  1  0
 19 50  1  0
 20 51  1  0
 22 52  1  0
 23 53  1  0
 24 54  1  0
 25 55  1  0
 27 56  1  0
 29 57  1  0
 33 58  1  0
 36 59  1  0
 36 60  1  0
M  CHG  1   5  -1
M  END
>  <EmbedRMS>  (182) 
0.08941166502640607

$$$$
