*****
  PyMOL2.4          3D                             0

 27 29  0  0  0  0  0  0  0  0999 V2000
   15.9370   35.1580   36.7890 N   0  0  0  0  0  0  0  0  0  0  0  0
   10.3650   41.5580   35.7250 O   0  0  0  0  0  0  0  0  0  0  0  0
   11.5760   36.2770   30.4350 O   0  0  0  0  0  0  0  0  0  0  0  0
    9.5860   38.1290   30.6440 O   0  0  0  0  0  0  0  0  0  0  0  0
   11.4021   43.5430   34.3699 O   0  0  0  0  0  0  0  0  0  0  0  0
   11.0790   45.9430   33.5210 N   0  0  0  0  0  0  0  0  0  0  0  0
    9.9890   45.0380   33.2670 C   0  0  0  0  0  0  0  0  0  0  0  0
   10.2970   43.6750   33.8400 C   0  0  0  0  0  0  0  0  0  0  0  0
    9.9070   41.3260   34.3470 P   0  0  0  0  0  0  0  0  0  0  0  0
    8.9270   40.2590   34.2280 O   0  0  0  0  0  0  0  0  0  0  0  0
    9.2860   42.6450   33.6730 O   0  0  0  0  0  0  0  0  0  0  0  0
   10.8810   40.7280   31.9500 C   0  0  0  0  0  0  0  0  0  0  0  0
   11.1300   40.9360   33.3650 O   0  0  0  0  0  0  0  0  0  0  0  0
   11.4820   39.4050   31.4190 C   0  0  0  0  0  0  0  0  0  0  0  0
   12.7140   39.0900   32.1450 O   0  0  0  0  0  0  0  0  0  0  0  0
   10.6130   38.2020   31.6200 C   0  0  0  0  0  0  0  0  0  0  0  0
   11.5840   37.0310   31.6370 C   0  0  0  0  0  0  0  0  0  0  0  0
   12.9400   37.6750   32.0030 C   0  0  0  0  0  0  0  0  0  0  0  0
   16.4330   34.5830   34.5260 N   0  0  0  0  0  0  0  0  0  0  0  0
   16.1720   34.7500   33.1780 C   0  0  0  0  0  0  0  0  0  0  0  0
   15.2460   35.5870   32.6170 N   0  0  0  0  0  0  0  0  0  0  0  0
   14.5230   36.2850   33.5750 C   0  0  0  0  0  0  0  0  0  0  0  0
   14.6660   36.2580   34.9810 C   0  0  0  0  0  0  0  0  0  0  0  0
   15.6870   35.3110   35.4610 C   0  0  0  0  0  0  0  0  0  0  0  0
   13.7580   37.1140   35.6130 N   0  0  0  0  0  0  0  0  0  0  0  0
   13.1280   37.6450   34.6070 C   0  0  0  0  0  0  0  0  0  0  0  0
   13.5140   37.2250   33.3300 N   0  0  0  0  0  0  0  0  0  0  0  0
  1 24  1  0  0  0  0
  2  9  1  0  0  0  0
  3 17  1  0  0  0  0
  4 16  1  0  0  0  0
  5  8  2  0  0  0  0
  6  7  1  0  0  0  0
  7  8  1  0  0  0  0
  8 11  1  0  0  0  0
  9 10  2  0  0  0  0
  9 11  1  0  0  0  0
  9 13  1  0  0  0  0
 12 13  1  0  0  0  0
 12 14  1  0  0  0  0
 14 15  1  0  0  0  0
 14 16  1  0  0  0  0
 15 18  1  0  0  0  0
 16 17  1  0  0  0  0
 17 18  1  0  0  0  0
 18 27  1  0  0  0  0
 19 20  4  0  0  0  0
 19 24  4  0  0  0  0
 20 21  4  0  0  0  0
 21 22  4  0  0  0  0
 22 23  4  0  0  0  0
 22 27  4  0  0  0  0
 23 24  4  0  0  0  0
 23 25  4  0  0  0  0
 25 26  4  0  0  0  0
 26 27  4  0  0  0  0
M  END
$$$$
