
     RDKit          3D

 64 67  0  0  0  0  0  0  0  0999 V2000
   10.2809   43.7761   33.8096 C   0  0  0  0  0  0  0  0  0  0  0  0
   11.4070   43.5919   34.3590 O   0  0  0  0  0  0  0  0  0  0  0  0
    9.3695   42.7295   33.6981 O   0  0  0  0  0  0  0  0  0  0  0  0
    9.8866   41.2339   34.2840 P   0  0  0  0  0  5  0  0  0  0  0  0
   10.3667   41.4702   35.8744 O   0  0  0  0  0  1  0  0  0  0  0  0
    9.9498   45.1177   33.2498 C   0  0  2  0  0  0  0  0  0  0  0  0
   11.0755   46.0252   33.4790 N   0  0  0  0  0  0  0  0  0  0  0  0
    8.6581   45.6941   33.8720 C   0  0  0  0  0  0  0  0  0  0  0  0
    7.4377   44.9475   33.4273 C   0  0  0  0  0  0  0  0  0  0  0  0
    6.8459   44.0214   34.2935 O   0  0  0  0  0  0  0  0  0  0  0  0
    6.9795   45.1328   32.2672 O   0  0  0  0  0  0  0  0  0  0  0  0
    5.6912   43.2538   33.9608 C   0  0  0  0  0  0  0  0  0  0  0  0
    4.4490   44.1115   34.0071 C   0  0  0  0  0  0  0  0  0  0  0  0
    3.8112   44.4602   35.2298 C   0  0  0  0  0  0  0  0  0  0  0  0
    3.8990   44.5620   32.7929 C   0  0  0  0  0  0  0  0  0  0  0  0
    4.3215   44.0402   36.5093 N   0  0  0  0  0  4  0  0  0  0  0  0
    2.6292   45.2219   35.1899 C   0  0  0  0  0  0  0  0  0  0  0  0
    2.7344   45.3298   32.7788 C   0  0  0  0  0  0  0  0  0  0  0  0
    3.4581   43.8544   37.5646 O   0  0  0  0  0  1  0  0  0  0  0  0
    5.5492   43.9991   36.7275 O   0  0  0  0  0  0  0  0  0  0  0  0
    2.0988   45.6560   33.9746 C   0  0  0  0  0  0  0  0  0  0  0  0
    8.8080   40.1920   34.2086 O   0  0  0  0  0  0  0  0  0  0  0  0
   11.2376   40.7902   33.3672 O   0  0  0  0  0  0  0  0  0  0  0  0
   10.9138   40.6859   31.9947 C   0  0  0  0  0  0  0  0  0  0  0  0
   11.5170   39.3797   31.4408 C   0  0  0  0  0  0  0  0  0  0  0  0
   12.7489   39.0885   32.0760 O   0  0  0  0  0  0  0  0  0  0  0  0
   10.6051   38.1877   31.6659 C   0  0  0  0  0  0  0  0  0  0  0  0
   12.9411   37.6827   32.0277 C   0  0  0  0  0  0  0  0  0  0  0  0
    9.6358   38.0930   30.6503 O   0  0  0  0  0  0  0  0  0  0  0  0
   11.5826   37.0179   31.6936 C   0  0  0  0  0  0  0  0  0  0  0  0
   13.4908   37.2176   33.3239 N   0  0  0  0  0  0  0  0  0  0  0  0
   11.6140   36.3179   30.4675 O   0  0  0  0  0  0  0  0  0  0  0  0
   14.4762   36.3270   33.5733 C   0  0  0  0  0  0  0  0  0  0  0  0
   13.1179   37.6316   34.5688 C   0  0  0  0  0  0  0  0  0  0  0  0
   15.2067   35.6140   32.6743 N   0  0  0  0  0  0  0  0  0  0  0  0
   14.6731   36.2273   34.9186 C   0  0  0  0  0  0  0  0  0  0  0  0
   13.8223   37.0456   35.5785 N   0  0  0  0  0  0  0  0  0  0  0  0
   16.1639   34.7595   33.1551 C   0  0  0  0  0  0  0  0  0  0  0  0
   15.6515   35.3491   35.4134 C   0  0  0  0  0  0  0  0  0  0  0  0
   16.3793   34.6310   34.5045 N   0  0  0  0  0  0  0  0  0  0  0  0
   15.9002   35.1933   36.8093 N   0  0  0  0  0  0  0  0  0  0  0  0
    9.8104   45.0044   32.1514 H   0  0  0  0  0  0  0  0  0  0  0  0
   11.1193   46.2823   34.4931 H   0  0  0  0  0  0  0  0  0  0  0  0
   10.9077   46.9078   32.9430 H   0  0  0  0  0  0  0  0  0  0  0  0
    8.5425   46.7575   33.5688 H   0  0  0  0  0  0  0  0  0  0  0  0
    8.7246   45.6700   34.9819 H   0  0  0  0  0  0  0  0  0  0  0  0
    5.5923   42.4167   34.6830 H   0  0  0  0  0  0  0  0  0  0  0  0
    5.8263   42.7845   32.9613 H   0  0  0  0  0  0  0  0  0  0  0  0
    4.3674   44.3096   31.8496 H   0  0  0  0  0  0  0  0  0  0  0  0
    2.1231   45.4960   36.1069 H   0  0  0  0  0  0  0  0  0  0  0  0
    2.3208   45.6677   31.8374 H   0  0  0  0  0  0  0  0  0  0  0  0
    1.1932   46.2487   33.9607 H   0  0  0  0  0  0  0  0  0  0  0  0
    9.8236   40.7210   31.7584 H   0  0  0  0  0  0  0  0  0  0  0  0
   11.3857   41.5433   31.4689 H   0  0  0  0  0  0  0  0  0  0  0  0
   11.6993   39.5065   30.3486 H   0  0  0  0  0  0  0  0  0  0  0  0
   10.1121   38.2723   32.6632 H   0  0  0  0  0  0  0  0  0  0  0  0
   13.6816   37.4630   31.2269 H   0  0  0  0  0  0  0  0  0  0  0  0
    9.0034   37.3831   30.9352 H   0  0  0  0  0  0  0  0  0  0  0  0
   11.2845   36.3040   32.4928 H   0  0  0  0  0  0  0  0  0  0  0  0
   11.8848   36.9590   29.7588 H   0  0  0  0  0  0  0  0  0  0  0  0
   12.3363   38.3599   34.7440 H   0  0  0  0  0  0  0  0  0  0  0  0
   16.7574   34.1790   32.4623 H   0  0  0  0  0  0  0  0  0  0  0  0
   15.3529   35.7356   37.5141 H   0  0  0  0  0  0  0  0  0  0  0  0
   16.6363   34.5317   37.1418 H   0  0  0  0  0  0  0  0  0  0  0  0
  1  2  2  0
  1  3  1  0
  3  4  1  0
  4  5  1  0
  6  1  1  0
  7  6  1  0
  6  8  1  0
  8  9  1  0
  9 10  1  0
  9 11  2  0
 10 12  1  0
 12 13  1  0
 13 14  2  0
 15 13  1  0
 14 16  1  0
 14 17  1  0
 18 15  2  0
 16 19  1  0
 16 20  2  0
 17 21  2  0
 21 18  1  0
  4 22  2  0
  4 23  1  0
 24 23  1  0
 24 25  1  0
 25 26  1  0
 25 27  1  0
 26 28  1  0
 27 29  1  0
 27 30  1  0
 30 28  1  0
 28 31  1  0
 30 32  1  0
 33 31  1  0
 34 31  1  0
 35 33  2  0
 33 36  1  0
 37 34  2  0
 38 35  1  0
 36 39  2  0
 36 37  1  0
 40 38  2  0
 40 39  1  0
 39 41  1  0
  6 42  1  6
  7 43  1  0
  7 44  1  0
  8 45  1  0
  8 46  1  0
 12 47  1  0
 12 48  1  0
 15 49  1  0
 17 50  1  0
 18 51  1  0
 21 52  1  0
 24 53  1  0
 24 54  1  0
 25 55  1  0
 27 56  1  0
 28 57  1  0
 29 58  1  0
 30 59  1  0
 32 60  1  0
 34 61  1  0
 38 62  1  0
 41 63  1  0
 41 64  1  0
M  CHG  3   5  -1  16   1  19  -1
M  END
>  <EmbedRMS>  (1) 
0.08794762807088555

$$$$

     RDKit          3D

 64 67  0  0  0  0  0  0  0  0999 V2000
   10.2871   43.7708   33.8084 C   0  0  0  0  0  0  0  0  0  0  0  0
   11.4110   43.5814   34.3596 O   0  0  0  0  0  0  0  0  0  0  0  0
    9.3675   42.7308   33.7005 O   0  0  0  0  0  0  0  0  0  0  0  0
    9.8851   41.2328   34.2832 P   0  0  0  0  0  5  0  0  0  0  0  0
   10.3648   41.4679   35.8742 O   0  0  0  0  0  1  0  0  0  0  0  0
    9.9589   45.1141   33.2521 C   0  0  2  0  0  0  0  0  0  0  0  0
   11.0656   46.0485   33.4753 N   0  0  0  0  0  0  0  0  0  0  0  0
    8.6670   45.6555   33.8900 C   0  0  0  0  0  0  0  0  0  0  0  0
    8.3006   46.9946   33.3272 C   0  0  0  0  0  0  0  0  0  0  0  0
    8.0856   47.1259   31.9534 O   0  0  0  0  0  0  0  0  0  0  0  0
    8.1977   47.9912   34.0922 O   0  0  0  0  0  0  0  0  0  0  0  0
    7.7803   48.3711   31.3341 C   0  0  0  0  0  0  0  0  0  0  0  0
    7.8288   48.2131   29.8348 C   0  0  0  0  0  0  0  0  0  0  0  0
    8.9754   47.7004   29.1668 C   0  0  0  0  0  0  0  0  0  0  0  0
    6.6883   48.5483   29.0813 C   0  0  0  0  0  0  0  0  0  0  0  0
   10.1793   47.3498   29.8745 N   0  0  0  0  0  4  0  0  0  0  0  0
    8.9276   47.5086   27.7744 C   0  0  0  0  0  0  0  0  0  0  0  0
    6.6692   48.3654   27.6977 C   0  0  0  0  0  0  0  0  0  0  0  0
   10.9764   46.3295   29.4091 O   0  0  0  0  0  1  0  0  0  0  0  0
   10.6004   48.0605   30.8096 O   0  0  0  0  0  0  0  0  0  0  0  0
    7.7844   47.8419   27.0464 C   0  0  0  0  0  0  0  0  0  0  0  0
    8.8077   40.1902   34.2065 O   0  0  0  0  0  0  0  0  0  0  0  0
   11.2384   40.7892   33.3689 O   0  0  0  0  0  0  0  0  0  0  0  0
   10.9206   40.6898   31.9948 C   0  0  0  0  0  0  0  0  0  0  0  0
   11.5170   39.3798   31.4394 C   0  0  0  0  0  0  0  0  0  0  0  0
   12.7480   39.0857   32.0725 O   0  0  0  0  0  0  0  0  0  0  0  0
   10.6032   38.1887   31.6670 C   0  0  0  0  0  0  0  0  0  0  0  0
   12.9334   37.6792   32.0276 C   0  0  0  0  0  0  0  0  0  0  0  0
    9.6391   38.0771   30.6467 O   0  0  0  0  0  0  0  0  0  0  0  0
   11.5738   37.0148   31.7057 C   0  0  0  0  0  0  0  0  0  0  0  0
   13.4903   37.2176   33.3228 N   0  0  0  0  0  0  0  0  0  0  0  0
   11.6205   36.3368   30.4695 O   0  0  0  0  0  0  0  0  0  0  0  0
   14.4763   36.3274   33.5724 C   0  0  0  0  0  0  0  0  0  0  0  0
   13.1174   37.6313   34.5681 C   0  0  0  0  0  0  0  0  0  0  0  0
   15.2067   35.6141   32.6737 N   0  0  0  0  0  0  0  0  0  0  0  0
   14.6732   36.2278   34.9179 C   0  0  0  0  0  0  0  0  0  0  0  0
   13.8219   37.0455   35.5778 N   0  0  0  0  0  0  0  0  0  0  0  0
   16.1641   34.7599   33.1548 C   0  0  0  0  0  0  0  0  0  0  0  0
   15.6516   35.3498   35.4131 C   0  0  0  0  0  0  0  0  0  0  0  0
   16.3796   34.6318   34.5043 N   0  0  0  0  0  0  0  0  0  0  0  0
   15.8994   35.1933   36.8090 N   0  0  0  0  0  0  0  0  0  0  0  0
    9.8009   45.0006   32.1565 H   0  0  0  0  0  0  0  0  0  0  0  0
   11.9181   45.7053   32.9747 H   0  0  0  0  0  0  0  0  0  0  0  0
   11.2828   46.1151   34.4973 H   0  0  0  0  0  0  0  0  0  0  0  0
    8.7922   45.7311   34.9933 H   0  0  0  0  0  0  0  0  0  0  0  0
    7.8269   44.9559   33.6892 H   0  0  0  0  0  0  0  0  0  0  0  0
    6.7727   48.7007   31.6735 H   0  0  0  0  0  0  0  0  0  0  0  0
    8.5079   49.1515   31.6465 H   0  0  0  0  0  0  0  0  0  0  0  0
    5.8035   48.9431   29.5661 H   0  0  0  0  0  0  0  0  0  0  0  0
    9.7862   47.1129   27.2464 H   0  0  0  0  0  0  0  0  0  0  0  0
    5.7841   48.6237   27.1301 H   0  0  0  0  0  0  0  0  0  0  0  0
    7.7651   47.6962   25.9739 H   0  0  0  0  0  0  0  0  0  0  0  0
    9.8332   40.7424   31.7530 H   0  0  0  0  0  0  0  0  0  0  0  0
   11.4046   41.5439   31.4748 H   0  0  0  0  0  0  0  0  0  0  0  0
   11.6969   39.5038   30.3466 H   0  0  0  0  0  0  0  0  0  0  0  0
   10.1102   38.2627   32.6658 H   0  0  0  0  0  0  0  0  0  0  0  0
   13.6653   37.4535   31.2202 H   0  0  0  0  0  0  0  0  0  0  0  0
    8.8970   38.6904   30.8866 H   0  0  0  0  0  0  0  0  0  0  0  0
   11.2844   36.3054   32.5176 H   0  0  0  0  0  0  0  0  0  0  0  0
   10.8519   35.7083   30.4594 H   0  0  0  0  0  0  0  0  0  0  0  0
   12.3349   38.3586   34.7433 H   0  0  0  0  0  0  0  0  0  0  0  0
   16.7565   34.1779   32.4625 H   0  0  0  0  0  0  0  0  0  0  0  0
   15.3527   35.7364   37.5136 H   0  0  0  0  0  0  0  0  0  0  0  0
   16.6357   34.5321   37.1419 H   0  0  0  0  0  0  0  0  0  0  0  0
  1  2  2  0
  1  3  1  0
  3  4  1  0
  4  5  1  0
  6  1  1  0
  7  6  1  0
  6  8  1  0
  8  9  1  0
  9 10  1  0
  9 11  2  0
 10 12  1  0
 12 13  1  0
 13 14  2  0
 15 13  1  0
 14 16  1  0
 14 17  1  0
 18 15  2  0
 16 19  1  0
 16 20  2  0
 17 21  2  0
 21 18  1  0
  4 22  2  0
  4 23  1  0
 24 23  1  0
 24 25  1  0
 25 26  1  0
 25 27  1  0
 26 28  1  0
 27 29  1  0
 27 30  1  0
 30 28  1  0
 28 31  1  0
 30 32  1  0
 33 31  1  0
 34 31  1  0
 35 33  2  0
 33 36  1  0
 37 34  2  0
 38 35  1  0
 36 39  2  0
 36 37  1  0
 40 38  2  0
 40 39  1  0
 39 41  1  0
  6 42  1  6
  7 43  1  0
  7 44  1  0
  8 45  1  0
  8 46  1  0
 12 47  1  0
 12 48  1  0
 15 49  1  0
 17 50  1  0
 18 51  1  0
 21 52  1  0
 24 53  1  0
 24 54  1  0
 25 55  1  0
 27 56  1  0
 28 57  1  0
 29 58  1  0
 30 59  1  0
 32 60  1  0
 34 61  1  0
 38 62  1  0
 41 63  1  0
 41 64  1  0
M  CHG  3   5  -1  16   1  19  -1
M  END
>  <EmbedRMS>  (2) 
0.09006799977164116

$$$$

     RDKit          3D

 64 67  0  0  0  0  0  0  0  0999 V2000
   10.2861   43.7713   33.8038 C   0  0  0  0  0  0  0  0  0  0  0  0
   11.4108   43.5872   34.3553 O   0  0  0  0  0  0  0  0  0  0  0  0
    9.3670   42.7308   33.6999 O   0  0  0  0  0  0  0  0  0  0  0  0
    9.8853   41.2344   34.2847 P   0  0  0  0  0  5  0  0  0  0  0  0
   10.3656   41.4702   35.8747 O   0  0  0  0  0  1  0  0  0  0  0  0
    9.9555   45.1119   33.2477 C   0  0  2  0  0  0  0  0  0  0  0  0
   11.0670   46.0342   33.4851 N   0  0  0  0  0  0  0  0  0  0  0  0
    8.6201   45.6654   33.8012 C   0  0  0  0  0  0  0  0  0  0  0  0
    8.4863   45.5258   35.2913 C   0  0  0  0  0  0  0  0  0  0  0  0
    9.1496   46.4190   36.1409 O   0  0  0  0  0  0  0  0  0  0  0  0
    7.7932   44.5838   35.7661 O   0  0  0  0  0  0  0  0  0  0  0  0
    9.1100   46.3097   37.5629 C   0  0  0  0  0  0  0  0  0  0  0  0
    9.8711   45.0879   38.0294 C   0  0  0  0  0  0  0  0  0  0  0  0
   11.2500   44.8878   37.7396 C   0  0  0  0  0  0  0  0  0  0  0  0
    9.1639   44.0868   38.7224 C   0  0  0  0  0  0  0  0  0  0  0  0
   12.0393   45.8710   37.0418 N   0  0  0  0  0  4  0  0  0  0  0  0
   11.8617   43.6825   38.1349 C   0  0  0  0  0  0  0  0  0  0  0  0
    9.7960   42.9071   39.1156 C   0  0  0  0  0  0  0  0  0  0  0  0
   11.8396   47.2156   37.2467 O   0  0  0  0  0  1  0  0  0  0  0  0
   13.0258   45.5131   36.3654 O   0  0  0  0  0  0  0  0  0  0  0  0
   11.1414   42.7045   38.8204 C   0  0  0  0  0  0  0  0  0  0  0  0
    8.8081   40.1913   34.2089 O   0  0  0  0  0  0  0  0  0  0  0  0
   11.2380   40.7908   33.3699 O   0  0  0  0  0  0  0  0  0  0  0  0
   10.9190   40.6909   31.9963 C   0  0  0  0  0  0  0  0  0  0  0  0
   11.5177   39.3827   31.4415 C   0  0  0  0  0  0  0  0  0  0  0  0
   12.7496   39.0895   32.0759 O   0  0  0  0  0  0  0  0  0  0  0  0
   10.6036   38.1904   31.6661 C   0  0  0  0  0  0  0  0  0  0  0  0
   12.9403   37.6836   32.0279 C   0  0  0  0  0  0  0  0  0  0  0  0
    9.6376   38.0791   30.6476 O   0  0  0  0  0  0  0  0  0  0  0  0
   11.5802   37.0207   31.6939 C   0  0  0  0  0  0  0  0  0  0  0  0
   13.4905   37.2180   33.3239 N   0  0  0  0  0  0  0  0  0  0  0  0
   11.6115   36.3197   30.4682 O   0  0  0  0  0  0  0  0  0  0  0  0
   14.4759   36.3271   33.5731 C   0  0  0  0  0  0  0  0  0  0  0  0
   13.1183   37.6324   34.5689 C   0  0  0  0  0  0  0  0  0  0  0  0
   15.2062   35.6138   32.6742 N   0  0  0  0  0  0  0  0  0  0  0  0
   14.6729   36.2272   34.9184 C   0  0  0  0  0  0  0  0  0  0  0  0
   13.8225   37.0459   35.5784 N   0  0  0  0  0  0  0  0  0  0  0  0
   16.1631   34.7588   33.1549 C   0  0  0  0  0  0  0  0  0  0  0  0
   15.6512   35.3491   35.4132 C   0  0  0  0  0  0  0  0  0  0  0  0
   16.3787   34.6305   34.5044 N   0  0  0  0  0  0  0  0  0  0  0  0
   15.9000   35.1944   36.8091 N   0  0  0  0  0  0  0  0  0  0  0  0
    9.8423   44.9895   32.1479 H   0  0  0  0  0  0  0  0  0  0  0  0
   11.1024   46.2961   34.4950 H   0  0  0  0  0  0  0  0  0  0  0  0
   10.8919   46.9130   32.9458 H   0  0  0  0  0  0  0  0  0  0  0  0
    7.7793   45.1247   33.3133 H   0  0  0  0  0  0  0  0  0  0  0  0
    8.5137   46.7367   33.5266 H   0  0  0  0  0  0  0  0  0  0  0  0
    8.0486   46.2818   37.8951 H   0  0  0  0  0  0  0  0  0  0  0  0
    9.5429   47.2214   38.0197 H   0  0  0  0  0  0  0  0  0  0  0  0
    8.1122   44.2118   38.9494 H   0  0  0  0  0  0  0  0  0  0  0  0
   12.9084   43.5037   37.9233 H   0  0  0  0  0  0  0  0  0  0  0  0
    9.2383   42.1442   39.6435 H   0  0  0  0  0  0  0  0  0  0  0  0
   11.6281   41.7858   39.1216 H   0  0  0  0  0  0  0  0  0  0  0  0
   11.4004   41.5458   31.4749 H   0  0  0  0  0  0  0  0  0  0  0  0
    9.8312   40.7402   31.7558 H   0  0  0  0  0  0  0  0  0  0  0  0
   11.6994   39.5096   30.3494 H   0  0  0  0  0  0  0  0  0  0  0  0
   10.1129   38.2597   32.6664 H   0  0  0  0  0  0  0  0  0  0  0  0
   13.6806   37.4632   31.2271 H   0  0  0  0  0  0  0  0  0  0  0  0
    8.8951   38.6910   30.8900 H   0  0  0  0  0  0  0  0  0  0  0  0
   11.2822   36.3066   32.4931 H   0  0  0  0  0  0  0  0  0  0  0  0
   11.8854   36.9595   29.7596 H   0  0  0  0  0  0  0  0  0  0  0  0
   12.3379   38.3620   34.7441 H   0  0  0  0  0  0  0  0  0  0  0  0
   16.7560   34.1780   32.4620 H   0  0  0  0  0  0  0  0  0  0  0  0
   15.3517   35.7369   37.5131 H   0  0  0  0  0  0  0  0  0  0  0  0
   16.6354   34.5327   37.1428 H   0  0  0  0  0  0  0  0  0  0  0  0
  1  2  2  0
  1  3  1  0
  3  4  1  0
  4  5  1  0
  6  1  1  0
  7  6  1  0
  6  8  1  0
  8  9  1  0
  9 10  1  0
  9 11  2  0
 10 12  1  0
 12 13  1  0
 13 14  2  0
 15 13  1  0
 14 16  1  0
 14 17  1  0
 18 15  2  0
 16 19  1  0
 16 20  2  0
 17 21  2  0
 21 18  1  0
  4 22  2  0
  4 23  1  0
 24 23  1  0
 24 25  1  0
 25 26  1  0
 25 27  1  0
 26 28  1  0
 27 29  1  0
 27 30  1  0
 30 28  1  0
 28 31  1  0
 30 32  1  0
 33 31  1  0
 34 31  1  0
 35 33  2  0
 33 36  1  0
 37 34  2  0
 38 35  1  0
 36 39  2  0
 36 37  1  0
 40 38  2  0
 40 39  1  0
 39 41  1  0
  6 42  1  6
  7 43  1  0
  7 44  1  0
  8 45  1  0
  8 46  1  0
 12 47  1  0
 12 48  1  0
 15 49  1  0
 17 50  1  0
 18 51  1  0
 21 52  1  0
 24 53  1  0
 24 54  1  0
 25 55  1  0
 27 56  1  0
 28 57  1  0
 29 58  1  0
 30 59  1  0
 32 60  1  0
 34 61  1  0
 38 62  1  0
 41 63  1  0
 41 64  1  0
M  CHG  3   5  -1  16   1  19  -1
M  END
>  <EmbedRMS>  (3) 
0.08806067290915874

$$$$

     RDKit          3D

 64 67  0  0  0  0  0  0  0  0999 V2000
   10.2829   43.7754   33.8079 C   0  0  0  0  0  0  0  0  0  0  0  0
   11.4086   43.5913   34.3580 O   0  0  0  0  0  0  0  0  0  0  0  0
    9.3668   42.7318   33.7013 O   0  0  0  0  0  0  0  0  0  0  0  0
    9.8863   41.2344   34.2838 P   0  0  0  0  0  5  0  0  0  0  0  0
   10.3666   41.4693   35.8744 O   0  0  0  0  0  1  0  0  0  0  0  0
    9.9540   45.1113   33.2428 C   0  0  2  0  0  0  0  0  0  0  0  0
   11.0721   46.0272   33.4849 N   0  0  0  0  0  0  0  0  0  0  0  0
    8.6400   45.6447   33.8516 C   0  0  0  0  0  0  0  0  0  0  0  0
    8.2217   46.9294   33.2067 C   0  0  0  0  0  0  0  0  0  0  0  0
    7.7683   46.9160   31.8851 O   0  0  0  0  0  0  0  0  0  0  0  0
    8.3058   48.0122   33.8483 O   0  0  0  0  0  0  0  0  0  0  0  0
    7.3894   48.0997   31.1876 C   0  0  0  0  0  0  0  0  0  0  0  0
    7.0025   47.7853   29.7599 C   0  0  0  0  0  0  0  0  0  0  0  0
    6.0837   48.5982   29.0422 C   0  0  0  0  0  0  0  0  0  0  0  0
    7.5887   46.6807   29.1094 C   0  0  0  0  0  0  0  0  0  0  0  0
    5.5281   49.7986   29.6073 N   0  0  0  0  0  4  0  0  0  0  0  0
    5.7134   48.2290   27.7371 C   0  0  0  0  0  0  0  0  0  0  0  0
    7.2221   46.3439   27.8058 C   0  0  0  0  0  0  0  0  0  0  0  0
    4.2662   50.2087   29.2428 O   0  0  0  0  0  1  0  0  0  0  0  0
    6.2454   50.5782   30.2676 O   0  0  0  0  0  0  0  0  0  0  0  0
    6.2774   47.1090   27.1256 C   0  0  0  0  0  0  0  0  0  0  0  0
    8.8089   40.1914   34.2078 O   0  0  0  0  0  0  0  0  0  0  0  0
   11.2387   40.7911   33.3679 O   0  0  0  0  0  0  0  0  0  0  0  0
   10.9186   40.6889   31.9945 C   0  0  0  0  0  0  0  0  0  0  0  0
   11.5180   39.3800   31.4397 C   0  0  0  0  0  0  0  0  0  0  0  0
   12.7483   39.0876   32.0750 O   0  0  0  0  0  0  0  0  0  0  0  0
   10.6053   38.1875   31.6656 C   0  0  0  0  0  0  0  0  0  0  0  0
   12.9360   37.6817   32.0288 C   0  0  0  0  0  0  0  0  0  0  0  0
    9.6423   38.0737   30.6445 O   0  0  0  0  0  0  0  0  0  0  0  0
   11.5765   37.0158   31.7046 C   0  0  0  0  0  0  0  0  0  0  0  0
   13.4908   37.2183   33.3237 N   0  0  0  0  0  0  0  0  0  0  0  0
   11.6103   36.3399   30.4680 O   0  0  0  0  0  0  0  0  0  0  0  0
   14.4762   36.3274   33.5728 C   0  0  0  0  0  0  0  0  0  0  0  0
   13.1181   37.6318   34.5689 C   0  0  0  0  0  0  0  0  0  0  0  0
   15.2063   35.6141   32.6739 N   0  0  0  0  0  0  0  0  0  0  0  0
   14.6733   36.2275   34.9182 C   0  0  0  0  0  0  0  0  0  0  0  0
   13.8226   37.0457   35.5783 N   0  0  0  0  0  0  0  0  0  0  0  0
   16.1635   34.7595   33.1546 C   0  0  0  0  0  0  0  0  0  0  0  0
   15.6515   35.3492   35.4130 C   0  0  0  0  0  0  0  0  0  0  0  0
   16.3791   34.6310   34.5041 N   0  0  0  0  0  0  0  0  0  0  0  0
   15.9003   35.1934   36.8089 N   0  0  0  0  0  0  0  0  0  0  0  0
    9.8235   44.9835   32.1448 H   0  0  0  0  0  0  0  0  0  0  0  0
   10.9369   46.8886   32.9075 H   0  0  0  0  0  0  0  0  0  0  0  0
   11.0794   46.3198   34.4899 H   0  0  0  0  0  0  0  0  0  0  0  0
    7.8256   44.9048   33.6938 H   0  0  0  0  0  0  0  0  0  0  0  0
    8.7553   45.7888   34.9489 H   0  0  0  0  0  0  0  0  0  0  0  0
    8.2392   48.8159   31.1790 H   0  0  0  0  0  0  0  0  0  0  0  0
    6.5307   48.5535   31.7269 H   0  0  0  0  0  0  0  0  0  0  0  0
    8.3261   46.0677   29.6125 H   0  0  0  0  0  0  0  0  0  0  0  0
    5.0052   48.8281   27.1789 H   0  0  0  0  0  0  0  0  0  0  0  0
    7.6704   45.4851   27.3229 H   0  0  0  0  0  0  0  0  0  0  0  0
    5.9927   46.8434   26.1157 H   0  0  0  0  0  0  0  0  0  0  0  0
   11.3984   41.5436   31.4714 H   0  0  0  0  0  0  0  0  0  0  0  0
    9.8304   40.7372   31.7553 H   0  0  0  0  0  0  0  0  0  0  0  0
   11.7002   39.5044   30.3473 H   0  0  0  0  0  0  0  0  0  0  0  0
   10.1103   38.2619   32.6636 H   0  0  0  0  0  0  0  0  0  0  0  0
   13.6696   37.4587   31.2223 H   0  0  0  0  0  0  0  0  0  0  0  0
    8.9000   38.6882   30.8813 H   0  0  0  0  0  0  0  0  0  0  0  0
   11.2690   36.3069   32.5091 H   0  0  0  0  0  0  0  0  0  0  0  0
   12.1427   35.5151   30.6153 H   0  0  0  0  0  0  0  0  0  0  0  0
   12.3359   38.3593   34.7445 H   0  0  0  0  0  0  0  0  0  0  0  0
   16.7568   34.1789   32.4618 H   0  0  0  0  0  0  0  0  0  0  0  0
   15.3530   35.7356   37.5138 H   0  0  0  0  0  0  0  0  0  0  0  0
   16.6362   34.5315   37.1413 H   0  0  0  0  0  0  0  0  0  0  0  0
  1  2  2  0
  1  3  1  0
  3  4  1  0
  4  5  1  0
  6  1  1  0
  7  6  1  0
  6  8  1  0
  8  9  1  0
  9 10  1  0
  9 11  2  0
 10 12  1  0
 12 13  1  0
 13 14  2  0
 15 13  1  0
 14 16  1  0
 14 17  1  0
 18 15  2  0
 16 19  1  0
 16 20  2  0
 17 21  2  0
 21 18  1  0
  4 22  2  0
  4 23  1  0
 24 23  1  0
 24 25  1  0
 25 26  1  0
 25 27  1  0
 26 28  1  0
 27 29  1  0
 27 30  1  0
 30 28  1  0
 28 31  1  0
 30 32  1  0
 33 31  1  0
 34 31  1  0
 35 33  2  0
 33 36  1  0
 37 34  2  0
 38 35  1  0
 36 39  2  0
 36 37  1  0
 40 38  2  0
 40 39  1  0
 39 41  1  0
  6 42  1  6
  7 43  1  0
  7 44  1  0
  8 45  1  0
  8 46  1  0
 12 47  1  0
 12 48  1  0
 15 49  1  0
 17 50  1  0
 18 51  1  0
 21 52  1  0
 24 53  1  0
 24 54  1  0
 25 55  1  0
 27 56  1  0
 28 57  1  0
 29 58  1  0
 30 59  1  0
 32 60  1  0
 34 61  1  0
 38 62  1  0
 41 63  1  0
 41 64  1  0
M  CHG  3   5  -1  16   1  19  -1
M  END
>  <EmbedRMS>  (4) 
0.08903287138689937

$$$$

     RDKit          3D

 64 67  0  0  0  0  0  0  0  0999 V2000
   10.2843   43.7743   33.8068 C   0  0  0  0  0  0  0  0  0  0  0  0
   11.4068   43.5904   34.3636 O   0  0  0  0  0  0  0  0  0  0  0  0
    9.3680   42.7310   33.6986 O   0  0  0  0  0  0  0  0  0  0  0  0
    9.8859   41.2342   34.2835 P   0  0  0  0  0  5  0  0  0  0  0  0
   10.3663   41.4697   35.8740 O   0  0  0  0  0  1  0  0  0  0  0  0
    9.9491   45.1166   33.2548 C   0  0  2  0  0  0  0  0  0  0  0  0
   11.0754   46.0275   33.4733 N   0  0  0  0  0  0  0  0  0  0  0  0
    8.6789   45.6546   33.9431 C   0  0  0  0  0  0  0  0  0  0  0  0
    8.1693   46.8969   33.2790 C   0  0  0  0  0  0  0  0  0  0  0  0
    8.4306   48.1431   33.8553 O   0  0  0  0  0  0  0  0  0  0  0  0
    7.5272   46.8102   32.1967 O   0  0  0  0  0  0  0  0  0  0  0  0
    7.9490   49.3636   33.3011 C   0  0  0  0  0  0  0  0  0  0  0  0
    8.4224   50.5230   34.1423 C   0  0  0  0  0  0  0  0  0  0  0  0
    9.8028   50.7780   34.3668 C   0  0  0  0  0  0  0  0  0  0  0  0
    7.4634   51.3409   34.7686 C   0  0  0  0  0  0  0  0  0  0  0  0
   10.8348   49.9879   33.7502 N   0  0  0  0  0  4  0  0  0  0  0  0
   10.1750   51.8228   35.2309 C   0  0  0  0  0  0  0  0  0  0  0  0
    7.8556   52.3839   35.6086 C   0  0  0  0  0  0  0  0  0  0  0  0
   12.0238   49.7777   34.4099 O   0  0  0  0  0  1  0  0  0  0  0  0
   10.7440   49.6448   32.5541 O   0  0  0  0  0  0  0  0  0  0  0  0
    9.2083   52.6215   35.8428 C   0  0  0  0  0  0  0  0  0  0  0  0
    8.8082   40.1914   34.2081 O   0  0  0  0  0  0  0  0  0  0  0  0
   11.2375   40.7899   33.3677 O   0  0  0  0  0  0  0  0  0  0  0  0
   10.9156   40.6881   31.9946 C   0  0  0  0  0  0  0  0  0  0  0  0
   11.5262   39.3870   31.4363 C   0  0  0  0  0  0  0  0  0  0  0  0
   12.7492   39.0892   32.0818 O   0  0  0  0  0  0  0  0  0  0  0  0
   10.6123   38.1893   31.6461 C   0  0  0  0  0  0  0  0  0  0  0  0
   12.9374   37.6826   32.0301 C   0  0  0  0  0  0  0  0  0  0  0  0
    9.6150   38.0838   30.6538 O   0  0  0  0  0  0  0  0  0  0  0  0
   11.5793   37.0136   31.7014 C   0  0  0  0  0  0  0  0  0  0  0  0
   13.4906   37.2169   33.3242 N   0  0  0  0  0  0  0  0  0  0  0  0
   11.6216   36.3252   30.4725 O   0  0  0  0  0  0  0  0  0  0  0  0
   14.4763   36.3266   33.5731 C   0  0  0  0  0  0  0  0  0  0  0  0
   13.1182   37.6308   34.5694 C   0  0  0  0  0  0  0  0  0  0  0  0
   15.2066   35.6137   32.6740 N   0  0  0  0  0  0  0  0  0  0  0  0
   14.6736   36.2270   34.9185 C   0  0  0  0  0  0  0  0  0  0  0  0
   13.8229   37.0451   35.5787 N   0  0  0  0  0  0  0  0  0  0  0  0
   16.1639   34.7593   33.1547 C   0  0  0  0  0  0  0  0  0  0  0  0
   15.6519   35.3489   35.4132 C   0  0  0  0  0  0  0  0  0  0  0  0
   16.3795   34.6308   34.5042 N   0  0  0  0  0  0  0  0  0  0  0  0
   15.9006   35.1931   36.8090 N   0  0  0  0  0  0  0  0  0  0  0  0
    9.7631   45.0050   32.1623 H   0  0  0  0  0  0  0  0  0  0  0  0
   10.8435   46.9542   33.0503 H   0  0  0  0  0  0  0  0  0  0  0  0
   11.8945   45.6781   32.9231 H   0  0  0  0  0  0  0  0  0  0  0  0
    7.8712   44.8909   33.9065 H   0  0  0  0  0  0  0  0  0  0  0  0
    8.8913   45.8678   35.0138 H   0  0  0  0  0  0  0  0  0  0  0  0
    6.8380   49.3266   33.2636 H   0  0  0  0  0  0  0  0  0  0  0  0
    8.3051   49.4826   32.2565 H   0  0  0  0  0  0  0  0  0  0  0  0
    6.4053   51.1663   34.6165 H   0  0  0  0  0  0  0  0  0  0  0  0
   11.2207   52.0309   35.4187 H   0  0  0  0  0  0  0  0  0  0  0  0
    7.1078   53.0044   36.0855 H   0  0  0  0  0  0  0  0  0  0  0  0
    9.5094   53.4281   36.4989 H   0  0  0  0  0  0  0  0  0  0  0  0
   11.3830   41.5502   31.4724 H   0  0  0  0  0  0  0  0  0  0  0  0
    9.8255   40.7180   31.7578 H   0  0  0  0  0  0  0  0  0  0  0  0
   11.7292   39.5285   30.3502 H   0  0  0  0  0  0  0  0  0  0  0  0
   10.1140   38.2719   32.6379 H   0  0  0  0  0  0  0  0  0  0  0  0
   13.6726   37.4635   31.2240 H   0  0  0  0  0  0  0  0  0  0  0  0
   10.0535   38.1084   29.7638 H   0  0  0  0  0  0  0  0  0  0  0  0
   11.2646   36.3134   32.5107 H   0  0  0  0  0  0  0  0  0  0  0  0
   12.1549   35.5031   30.6315 H   0  0  0  0  0  0  0  0  0  0  0  0
   12.3362   38.3586   34.7450 H   0  0  0  0  0  0  0  0  0  0  0  0
   16.7574   34.1788   32.4619 H   0  0  0  0  0  0  0  0  0  0  0  0
   16.6366   34.5314   37.1415 H   0  0  0  0  0  0  0  0  0  0  0  0
   15.3533   35.7353   37.5139 H   0  0  0  0  0  0  0  0  0  0  0  0
  1  2  2  0
  1  3  1  0
  3  4  1  0
  4  5  1  0
  6  1  1  0
  7  6  1  0
  6  8  1  0
  8  9  1  0
  9 10  1  0
  9 11  2  0
 10 12  1  0
 12 13  1  0
 13 14  2  0
 15 13  1  0
 14 16  1  0
 14 17  1  0
 18 15  2  0
 16 19  1  0
 16 20  2  0
 17 21  2  0
 21 18  1  0
  4 22  2  0
  4 23  1  0
 24 23  1  0
 24 25  1  0
 25 26  1  0
 25 27  1  0
 26 28  1  0
 27 29  1  0
 27 30  1  0
 30 28  1  0
 28 31  1  0
 30 32  1  0
 33 31  1  0
 34 31  1  0
 35 33  2  0
 33 36  1  0
 37 34  2  0
 38 35  1  0
 36 39  2  0
 36 37  1  0
 40 38  2  0
 40 39  1  0
 39 41  1  0
  6 42  1  6
  7 43  1  0
  7 44  1  0
  8 45  1  0
  8 46  1  0
 12 47  1  0
 12 48  1  0
 15 49  1  0
 17 50  1  0
 18 51  1  0
 21 52  1  0
 24 53  1  0
 24 54  1  0
 25 55  1  0
 27 56  1  0
 28 57  1  0
 29 58  1  0
 30 59  1  0
 32 60  1  0
 34 61  1  0
 38 62  1  0
 41 63  1  0
 41 64  1  0
M  CHG  3   5  -1  16   1  19  -1
M  END
>  <EmbedRMS>  (5) 
0.08799305789065166

$$$$

     RDKit          3D

 64 67  0  0  0  0  0  0  0  0999 V2000
   10.2863   43.7709   33.8099 C   0  0  0  0  0  0  0  0  0  0  0  0
   11.4101   43.5816   34.3615 O   0  0  0  0  0  0  0  0  0  0  0  0
    9.3666   42.7310   33.7020 O   0  0  0  0  0  0  0  0  0  0  0  0
    9.8848   41.2328   34.2833 P   0  0  0  0  0  5  0  0  0  0  0  0
   10.3663   41.4672   35.8737 O   0  0  0  0  0  1  0  0  0  0  0  0
    9.9612   45.1119   33.2468 C   0  0  2  0  0  0  0  0  0  0  0  0
   11.0651   46.0484   33.4751 N   0  0  0  0  0  0  0  0  0  0  0  0
    8.6634   45.6560   33.8672 C   0  0  0  0  0  0  0  0  0  0  0  0
    8.2965   46.9769   33.2662 C   0  0  0  0  0  0  0  0  0  0  0  0
    7.7826   47.0206   31.9652 O   0  0  0  0  0  0  0  0  0  0  0  0
    8.4939   48.0391   33.9173 O   0  0  0  0  0  0  0  0  0  0  0  0
    7.5416   48.2402   31.2639 C   0  0  0  0  0  0  0  0  0  0  0  0
    8.8382   48.9310   30.8954 C   0  0  0  0  0  0  0  0  0  0  0  0
    8.9459   50.3456   30.8540 C   0  0  0  0  0  0  0  0  0  0  0  0
    9.9644   48.1499   30.5699 C   0  0  0  0  0  0  0  0  0  0  0  0
    7.8048   51.1948   31.0621 N   0  0  0  0  0  4  0  0  0  0  0  0
   10.1950   50.9323   30.5812 C   0  0  0  0  0  0  0  0  0  0  0  0
   11.1907   48.7512   30.2847 C   0  0  0  0  0  0  0  0  0  0  0  0
    6.6039   50.9009   30.4582 O   0  0  0  0  0  1  0  0  0  0  0  0
    7.9428   52.3038   31.6187 O   0  0  0  0  0  0  0  0  0  0  0  0
   11.3089   50.1394   30.3025 C   0  0  0  0  0  0  0  0  0  0  0  0
    8.8069   40.1904   34.2077 O   0  0  0  0  0  0  0  0  0  0  0  0
   11.2364   40.7903   33.3657 O   0  0  0  0  0  0  0  0  0  0  0  0
   10.9132   40.6843   31.9930 C   0  0  0  0  0  0  0  0  0  0  0  0
   11.5174   39.3773   31.4394 C   0  0  0  0  0  0  0  0  0  0  0  0
   12.7476   39.0869   32.0756 O   0  0  0  0  0  0  0  0  0  0  0  0
   10.6069   38.1851   31.6656 C   0  0  0  0  0  0  0  0  0  0  0  0
   12.9372   37.6811   32.0290 C   0  0  0  0  0  0  0  0  0  0  0  0
    9.6403   38.0882   30.6475 O   0  0  0  0  0  0  0  0  0  0  0  0
   11.5789   37.0134   31.7045 C   0  0  0  0  0  0  0  0  0  0  0  0
   13.4915   37.2182   33.3239 N   0  0  0  0  0  0  0  0  0  0  0  0
   11.6125   36.3389   30.4673 O   0  0  0  0  0  0  0  0  0  0  0  0
   14.4766   36.3272   33.5730 C   0  0  0  0  0  0  0  0  0  0  0  0
   13.1184   37.6317   34.5690 C   0  0  0  0  0  0  0  0  0  0  0  0
   15.2066   35.6139   32.6740 N   0  0  0  0  0  0  0  0  0  0  0  0
   14.6735   36.2274   34.9184 C   0  0  0  0  0  0  0  0  0  0  0  0
   13.8227   37.0455   35.5785 N   0  0  0  0  0  0  0  0  0  0  0  0
   16.1637   34.7593   33.1548 C   0  0  0  0  0  0  0  0  0  0  0  0
   15.6517   35.3491   35.4132 C   0  0  0  0  0  0  0  0  0  0  0  0
   16.3792   34.6308   34.5043 N   0  0  0  0  0  0  0  0  0  0  0  0
   15.9004   35.1932   36.8090 N   0  0  0  0  0  0  0  0  0  0  0  0
    9.8130   44.9934   32.1505 H   0  0  0  0  0  0  0  0  0  0  0  0
   11.2755   46.1175   34.4984 H   0  0  0  0  0  0  0  0  0  0  0  0
   11.9212   45.7053   32.9806 H   0  0  0  0  0  0  0  0  0  0  0  0
    8.7814   45.7616   34.9686 H   0  0  0  0  0  0  0  0  0  0  0  0
    7.8290   44.9456   33.6805 H   0  0  0  0  0  0  0  0  0  0  0  0
    6.9847   48.0110   30.3316 H   0  0  0  0  0  0  0  0  0  0  0  0
    6.9026   48.8875   31.9008 H   0  0  0  0  0  0  0  0  0  0  0  0
    9.9002   47.0694   30.5518 H   0  0  0  0  0  0  0  0  0  0  0  0
   10.2998   52.0097   30.5571 H   0  0  0  0  0  0  0  0  0  0  0  0
   12.0523   48.1384   30.0528 H   0  0  0  0  0  0  0  0  0  0  0  0
   12.2620   50.6034   30.0835 H   0  0  0  0  0  0  0  0  0  0  0  0
   11.3848   41.5414   31.4665 H   0  0  0  0  0  0  0  0  0  0  0  0
    9.8231   40.7188   31.7568 H   0  0  0  0  0  0  0  0  0  0  0  0
   11.7006   39.5017   30.3471 H   0  0  0  0  0  0  0  0  0  0  0  0
   10.1097   38.2750   32.6605 H   0  0  0  0  0  0  0  0  0  0  0  0
   13.6713   37.4592   31.2227 H   0  0  0  0  0  0  0  0  0  0  0  0
    9.0032   37.3835   30.9350 H   0  0  0  0  0  0  0  0  0  0  0  0
   11.2706   36.3048   32.5088 H   0  0  0  0  0  0  0  0  0  0  0  0
   12.1444   35.5136   30.6141 H   0  0  0  0  0  0  0  0  0  0  0  0
   12.3361   38.3592   34.7445 H   0  0  0  0  0  0  0  0  0  0  0  0
   16.7571   34.1787   32.4620 H   0  0  0  0  0  0  0  0  0  0  0  0
   16.6363   34.5314   37.1415 H   0  0  0  0  0  0  0  0  0  0  0  0
   15.3532   35.7355   37.5139 H   0  0  0  0  0  0  0  0  0  0  0  0
  1  2  2  0
  1  3  1  0
  3  4  1  0
  4  5  1  0
  6  1  1  0
  7  6  1  0
  6  8  1  0
  8  9  1  0
  9 10  1  0
  9 11  2  0
 10 12  1  0
 12 13  1  0
 13 14  2  0
 15 13  1  0
 14 16  1  0
 14 17  1  0
 18 15  2  0
 16 19  1  0
 16 20  2  0
 17 21  2  0
 21 18  1  0
  4 22  2  0
  4 23  1  0
 24 23  1  0
 24 25  1  0
 25 26  1  0
 25 27  1  0
 26 28  1  0
 27 29  1  0
 27 30  1  0
 30 28  1  0
 28 31  1  0
 30 32  1  0
 33 31  1  0
 34 31  1  0
 35 33  2  0
 33 36  1  0
 37 34  2  0
 38 35  1  0
 36 39  2  0
 36 37  1  0
 40 38  2  0
 40 39  1  0
 39 41  1  0
  6 42  1  6
  7 43  1  0
  7 44  1  0
  8 45  1  0
  8 46  1  0
 12 47  1  0
 12 48  1  0
 15 49  1  0
 17 50  1  0
 18 51  1  0
 21 52  1  0
 24 53  1  0
 24 54  1  0
 25 55  1  0
 27 56  1  0
 28 57  1  0
 29 58  1  0
 30 59  1  0
 32 60  1  0
 34 61  1  0
 38 62  1  0
 41 63  1  0
 41 64  1  0
M  CHG  3   5  -1  16   1  19  -1
M  END
>  <EmbedRMS>  (6) 
0.0893229876701647

$$$$

     RDKit          3D

 64 67  0  0  0  0  0  0  0  0999 V2000
   10.2844   43.7743   33.8068 C   0  0  0  0  0  0  0  0  0  0  0  0
   11.4068   43.5904   34.3636 O   0  0  0  0  0  0  0  0  0  0  0  0
    9.3683   42.7308   33.6984 O   0  0  0  0  0  0  0  0  0  0  0  0
    9.8864   41.2339   34.2831 P   0  0  0  0  0  5  0  0  0  0  0  0
   10.3660   41.4695   35.8739 O   0  0  0  0  0  1  0  0  0  0  0  0
    9.9491   45.1165   33.2547 C   0  0  2  0  0  0  0  0  0  0  0  0
   11.0754   46.0274   33.4733 N   0  0  0  0  0  0  0  0  0  0  0  0
    8.6789   45.6546   33.9429 C   0  0  0  0  0  0  0  0  0  0  0  0
    8.1672   46.8947   33.2762 C   0  0  0  0  0  0  0  0  0  0  0  0
    8.4318   48.1430   33.8463 O   0  0  0  0  0  0  0  0  0  0  0  0
    7.5202   46.8041   32.1971 O   0  0  0  0  0  0  0  0  0  0  0  0
    7.9446   49.3612   33.2918 C   0  0  0  0  0  0  0  0  0  0  0  0
    8.4242   50.5244   34.1237 C   0  0  0  0  0  0  0  0  0  0  0  0
    9.8050   50.7673   34.3513 C   0  0  0  0  0  0  0  0  0  0  0  0
    7.4708   51.3592   34.7360 C   0  0  0  0  0  0  0  0  0  0  0  0
   10.8261   49.9594   33.7406 N   0  0  0  0  0  4  0  0  0  0  0  0
   10.1851   51.8183   35.2055 C   0  0  0  0  0  0  0  0  0  0  0  0
    7.8700   52.4072   35.5666 C   0  0  0  0  0  0  0  0  0  0  0  0
   10.7428   49.6162   32.4116 O   0  0  0  0  0  1  0  0  0  0  0  0
   11.8845   49.7188   34.3575 O   0  0  0  0  0  0  0  0  0  0  0  0
    9.2241   52.6334   35.8047 C   0  0  0  0  0  0  0  0  0  0  0  0
    8.8087   40.1912   34.2072 O   0  0  0  0  0  0  0  0  0  0  0  0
   11.2388   40.7901   33.3680 O   0  0  0  0  0  0  0  0  0  0  0  0
   10.9191   40.6887   31.9944 C   0  0  0  0  0  0  0  0  0  0  0  0
   11.5182   39.3799   31.4396 C   0  0  0  0  0  0  0  0  0  0  0  0
   12.7485   39.0874   32.0748 O   0  0  0  0  0  0  0  0  0  0  0  0
   10.6054   38.1875   31.6656 C   0  0  0  0  0  0  0  0  0  0  0  0
   12.9361   37.6815   32.0288 C   0  0  0  0  0  0  0  0  0  0  0  0
    9.6423   38.0738   30.6445 O   0  0  0  0  0  0  0  0  0  0  0  0
   11.5765   37.0158   31.7046 C   0  0  0  0  0  0  0  0  0  0  0  0
   13.4908   37.2182   33.3237 N   0  0  0  0  0  0  0  0  0  0  0  0
   11.6102   36.3399   30.4680 O   0  0  0  0  0  0  0  0  0  0  0  0
   14.4762   36.3273   33.5728 C   0  0  0  0  0  0  0  0  0  0  0  0
   13.1181   37.6318   34.5689 C   0  0  0  0  0  0  0  0  0  0  0  0
   15.2064   35.6140   32.6739 N   0  0  0  0  0  0  0  0  0  0  0  0
   14.6733   36.2275   34.9182 C   0  0  0  0  0  0  0  0  0  0  0  0
   13.8226   37.0457   35.5783 N   0  0  0  0  0  0  0  0  0  0  0  0
   16.1636   34.7595   33.1546 C   0  0  0  0  0  0  0  0  0  0  0  0
   15.6515   35.3492   35.4130 C   0  0  0  0  0  0  0  0  0  0  0  0
   16.3791   34.6310   34.5041 N   0  0  0  0  0  0  0  0  0  0  0  0
   15.9002   35.1933   36.8089 N   0  0  0  0  0  0  0  0  0  0  0  0
    9.7632   45.0048   32.1622 H   0  0  0  0  0  0  0  0  0  0  0  0
   11.8942   45.6786   32.9223 H   0  0  0  0  0  0  0  0  0  0  0  0
   10.8430   46.9545   33.0514 H   0  0  0  0  0  0  0  0  0  0  0  0
    7.8720   44.8899   33.9091 H   0  0  0  0  0  0  0  0  0  0  0  0
    8.8919   45.8707   35.0129 H   0  0  0  0  0  0  0  0  0  0  0  0
    6.8334   49.3231   33.2649 H   0  0  0  0  0  0  0  0  0  0  0  0
    8.2912   49.4768   32.2439 H   0  0  0  0  0  0  0  0  0  0  0  0
    6.4118   51.1941   34.5802 H   0  0  0  0  0  0  0  0  0  0  0  0
   11.2325   52.0172   35.3949 H   0  0  0  0  0  0  0  0  0  0  0  0
    7.1265   53.0407   36.0331 H   0  0  0  0  0  0  0  0  0  0  0  0
    9.5307   53.4440   36.4532 H   0  0  0  0  0  0  0  0  0  0  0  0
   11.3996   41.5434   31.4720 H   0  0  0  0  0  0  0  0  0  0  0  0
    9.8311   40.7374   31.7548 H   0  0  0  0  0  0  0  0  0  0  0  0
   11.7004   39.5043   30.3471 H   0  0  0  0  0  0  0  0  0  0  0  0
   10.1105   38.2620   32.6636 H   0  0  0  0  0  0  0  0  0  0  0  0
   13.6696   37.4585   31.2222 H   0  0  0  0  0  0  0  0  0  0  0  0
    8.9001   38.6882   30.8814 H   0  0  0  0  0  0  0  0  0  0  0  0
   11.2689   36.3069   32.5091 H   0  0  0  0  0  0  0  0  0  0  0  0
   12.1426   35.5150   30.6153 H   0  0  0  0  0  0  0  0  0  0  0  0
   12.3359   38.3593   34.7444 H   0  0  0  0  0  0  0  0  0  0  0  0
   16.7569   34.1789   32.4618 H   0  0  0  0  0  0  0  0  0  0  0  0
   16.6362   34.5315   37.1414 H   0  0  0  0  0  0  0  0  0  0  0  0
   15.3530   35.7356   37.5138 H   0  0  0  0  0  0  0  0  0  0  0  0
  1  2  2  0
  1  3  1  0
  3  4  1  0
  4  5  1  0
  6  1  1  0
  7  6  1  0
  6  8  1  0
  8  9  1  0
  9 10  1  0
  9 11  2  0
 10 12  1  0
 12 13  1  0
 13 14  2  0
 15 13  1  0
 14 16  1  0
 14 17  1  0
 18 15  2  0
 16 19  1  0
 16 20  2  0
 17 21  2  0
 21 18  1  0
  4 22  2  0
  4 23  1  0
 24 23  1  0
 24 25  1  0
 25 26  1  0
 25 27  1  0
 26 28  1  0
 27 29  1  0
 27 30  1  0
 30 28  1  0
 28 31  1  0
 30 32  1  0
 33 31  1  0
 34 31  1  0
 35 33  2  0
 33 36  1  0
 37 34  2  0
 38 35  1  0
 36 39  2  0
 36 37  1  0
 40 38  2  0
 40 39  1  0
 39 41  1  0
  6 42  1  6
  7 43  1  0
  7 44  1  0
  8 45  1  0
  8 46  1  0
 12 47  1  0
 12 48  1  0
 15 49  1  0
 17 50  1  0
 18 51  1  0
 21 52  1  0
 24 53  1  0
 24 54  1  0
 25 55  1  0
 27 56  1  0
 28 57  1  0
 29 58  1  0
 30 59  1  0
 32 60  1  0
 34 61  1  0
 38 62  1  0
 41 63  1  0
 41 64  1  0
M  CHG  3   5  -1  16   1  19  -1
M  END
>  <EmbedRMS>  (7) 
0.08939164470346636

$$$$

     RDKit          3D

 64 67  0  0  0  0  0  0  0  0999 V2000
   10.2809   43.7760   33.8099 C   0  0  0  0  0  0  0  0  0  0  0  0
   11.4069   43.5918   34.3594 O   0  0  0  0  0  0  0  0  0  0  0  0
    9.3684   42.7299   33.6998 O   0  0  0  0  0  0  0  0  0  0  0  0
    9.8870   41.2336   34.2833 P   0  0  0  0  0  5  0  0  0  0  0  0
   10.3676   41.4693   35.8738 O   0  0  0  0  0  1  0  0  0  0  0  0
    9.9527   45.1157   33.2444 C   0  0  2  0  0  0  0  0  0  0  0  0
   11.0742   46.0263   33.4818 N   0  0  0  0  0  0  0  0  0  0  0  0
    8.6531   45.6902   33.8507 C   0  0  0  0  0  0  0  0  0  0  0  0
    7.4421   44.9248   33.4111 C   0  0  0  0  0  0  0  0  0  0  0  0
    7.0850   44.9182   32.0578 O   0  0  0  0  0  0  0  0  0  0  0  0
    6.7621   44.2852   34.2597 O   0  0  0  0  0  0  0  0  0  0  0  0
    5.9693   44.1876   31.5492 C   0  0  0  0  0  0  0  0  0  0  0  0
    4.6552   44.8018   31.9834 C   0  0  0  0  0  0  0  0  0  0  0  0
    3.5048   44.0073   32.2287 C   0  0  0  0  0  0  0  0  0  0  0  0
    4.5636   46.2000   32.1266 C   0  0  0  0  0  0  0  0  0  0  0  0
    3.5030   42.5895   31.9903 N   0  0  0  0  0  4  0  0  0  0  0  0
    2.3299   44.6240   32.6954 C   0  0  0  0  0  0  0  0  0  0  0  0
    3.3826   46.7949   32.5725 C   0  0  0  0  0  0  0  0  0  0  0  0
    4.0585   42.0802   30.8391 O   0  0  0  0  0  1  0  0  0  0  0  0
    2.8255   41.8335   32.7170 O   0  0  0  0  0  0  0  0  0  0  0  0
    2.2719   46.0074   32.8682 C   0  0  0  0  0  0  0  0  0  0  0  0
    8.8088   40.1914   34.2081 O   0  0  0  0  0  0  0  0  0  0  0  0
   11.2381   40.7904   33.3657 O   0  0  0  0  0  0  0  0  0  0  0  0
   10.9144   40.6850   31.9931 C   0  0  0  0  0  0  0  0  0  0  0  0
   11.5166   39.3773   31.4392 C   0  0  0  0  0  0  0  0  0  0  0  0
   12.7472   39.0854   32.0738 O   0  0  0  0  0  0  0  0  0  0  0  0
   10.6046   38.1868   31.6670 C   0  0  0  0  0  0  0  0  0  0  0  0
   12.9345   37.6790   32.0282 C   0  0  0  0  0  0  0  0  0  0  0  0
    9.6377   38.0918   30.6489 O   0  0  0  0  0  0  0  0  0  0  0  0
   11.5760   37.0129   31.7056 C   0  0  0  0  0  0  0  0  0  0  0  0
   13.4909   37.2177   33.3233 N   0  0  0  0  0  0  0  0  0  0  0  0
   11.6233   36.3371   30.4684 O   0  0  0  0  0  0  0  0  0  0  0  0
   14.4765   36.3272   33.5727 C   0  0  0  0  0  0  0  0  0  0  0  0
   13.1182   37.6316   34.5685 C   0  0  0  0  0  0  0  0  0  0  0  0
   15.2066   35.6137   32.6739 N   0  0  0  0  0  0  0  0  0  0  0  0
   14.6735   36.2276   34.9182 C   0  0  0  0  0  0  0  0  0  0  0  0
   13.8227   37.0458   35.5781 N   0  0  0  0  0  0  0  0  0  0  0  0
   16.1638   34.7593   33.1547 C   0  0  0  0  0  0  0  0  0  0  0  0
   15.6517   35.3493   35.4131 C   0  0  0  0  0  0  0  0  0  0  0  0
   16.3792   34.6309   34.5043 N   0  0  0  0  0  0  0  0  0  0  0  0
   15.9002   35.1934   36.8090 N   0  0  0  0  0  0  0  0  0  0  0  0
    9.8259   44.9989   32.1449 H   0  0  0  0  0  0  0  0  0  0  0  0
   10.9076   46.9085   32.9446 H   0  0  0  0  0  0  0  0  0  0  0  0
   11.1097   46.2834   34.4961 H   0  0  0  0  0  0  0  0  0  0  0  0
    8.7201   45.6940   34.9614 H   0  0  0  0  0  0  0  0  0  0  0  0
    8.5254   46.7432   33.5195 H   0  0  0  0  0  0  0  0  0  0  0  0
    6.0587   43.1351   31.8925 H   0  0  0  0  0  0  0  0  0  0  0  0
    6.0144   44.1960   30.4403 H   0  0  0  0  0  0  0  0  0  0  0  0
    5.4135   46.8341   31.9070 H   0  0  0  0  0  0  0  0  0  0  0  0
    1.4458   44.0331   32.8993 H   0  0  0  0  0  0  0  0  0  0  0  0
    3.3302   47.8694   32.6922 H   0  0  0  0  0  0  0  0  0  0  0  0
    1.3580   46.4711   33.2168 H   0  0  0  0  0  0  0  0  0  0  0  0
   11.3869   41.5416   31.4666 H   0  0  0  0  0  0  0  0  0  0  0  0
    9.8242   40.7213   31.7570 H   0  0  0  0  0  0  0  0  0  0  0  0
   11.6986   39.5013   30.3466 H   0  0  0  0  0  0  0  0  0  0  0  0
   10.1095   38.2772   32.6629 H   0  0  0  0  0  0  0  0  0  0  0  0
   13.6671   37.4544   31.2212 H   0  0  0  0  0  0  0  0  0  0  0  0
    8.9775   37.4162   30.9536 H   0  0  0  0  0  0  0  0  0  0  0  0
   11.2860   36.3041   32.5177 H   0  0  0  0  0  0  0  0  0  0  0  0
   10.8687   35.6920   30.4657 H   0  0  0  0  0  0  0  0  0  0  0  0
   12.3355   38.3587   34.7439 H   0  0  0  0  0  0  0  0  0  0  0  0
   16.7572   34.1786   32.4621 H   0  0  0  0  0  0  0  0  0  0  0  0
   16.6361   34.5315   37.1415 H   0  0  0  0  0  0  0  0  0  0  0  0
   15.3530   35.7358   37.5138 H   0  0  0  0  0  0  0  0  0  0  0  0
  1  2  2  0
  1  3  1  0
  3  4  1  0
  4  5  1  0
  6  1  1  0
  7  6  1  0
  6  8  1  0
  8  9  1  0
  9 10  1  0
  9 11  2  0
 10 12  1  0
 12 13  1  0
 13 14  2  0
 15 13  1  0
 14 16  1  0
 14 17  1  0
 18 15  2  0
 16 19  1  0
 16 20  2  0
 17 21  2  0
 21 18  1  0
  4 22  2  0
  4 23  1  0
 24 23  1  0
 24 25  1  0
 25 26  1  0
 25 27  1  0
 26 28  1  0
 27 29  1  0
 27 30  1  0
 30 28  1  0
 28 31  1  0
 30 32  1  0
 33 31  1  0
 34 31  1  0
 35 33  2  0
 33 36  1  0
 37 34  2  0
 38 35  1  0
 36 39  2  0
 36 37  1  0
 40 38  2  0
 40 39  1  0
 39 41  1  0
  6 42  1  6
  7 43  1  0
  7 44  1  0
  8 45  1  0
  8 46  1  0
 12 47  1  0
 12 48  1  0
 15 49  1  0
 17 50  1  0
 18 51  1  0
 21 52  1  0
 24 53  1  0
 24 54  1  0
 25 55  1  0
 27 56  1  0
 28 57  1  0
 29 58  1  0
 30 59  1  0
 32 60  1  0
 34 61  1  0
 38 62  1  0
 41 63  1  0
 41 64  1  0
M  CHG  3   5  -1  16   1  19  -1
M  END
>  <EmbedRMS>  (8) 
0.08896334325844675

$$$$

     RDKit          3D

 64 67  0  0  0  0  0  0  0  0999 V2000
   10.2845   43.7742   33.8069 C   0  0  0  0  0  0  0  0  0  0  0  0
   11.4070   43.5904   34.3635 O   0  0  0  0  0  0  0  0  0  0  0  0
    9.3681   42.7310   33.6989 O   0  0  0  0  0  0  0  0  0  0  0  0
    9.8860   41.2342   34.2839 P   0  0  0  0  0  5  0  0  0  0  0  0
   10.3656   41.4697   35.8747 O   0  0  0  0  0  1  0  0  0  0  0  0
    9.9494   45.1161   33.2543 C   0  0  2  0  0  0  0  0  0  0  0  0
   11.0751   46.0281   33.4736 N   0  0  0  0  0  0  0  0  0  0  0  0
    8.6779   45.6533   33.9403 C   0  0  0  0  0  0  0  0  0  0  0  0
    8.1755   46.8970   33.2747 C   0  0  0  0  0  0  0  0  0  0  0  0
    7.5671   46.8045   32.0181 O   0  0  0  0  0  0  0  0  0  0  0  0
    8.3219   48.0141   33.8409 O   0  0  0  0  0  0  0  0  0  0  0  0
    7.0566   47.9303   31.3055 C   0  0  0  0  0  0  0  0  0  0  0  0
    5.8265   48.4858   31.9875 C   0  0  0  0  0  0  0  0  0  0  0  0
    5.6719   49.8635   32.2971 C   0  0  0  0  0  0  0  0  0  0  0  0
    4.7568   47.6057   32.2337 C   0  0  0  0  0  0  0  0  0  0  0  0
    6.7231   50.8158   32.0787 N   0  0  0  0  0  4  0  0  0  0  0  0
    4.4524   50.3163   32.8281 C   0  0  0  0  0  0  0  0  0  0  0  0
    3.5602   48.0716   32.7799 C   0  0  0  0  0  0  0  0  0  0  0  0
    6.4182   52.0605   31.5782 O   0  0  0  0  0  1  0  0  0  0  0  0
    7.8498   50.6301   32.5817 O   0  0  0  0  0  0  0  0  0  0  0  0
    3.4068   49.4253   33.0731 C   0  0  0  0  0  0  0  0  0  0  0  0
    8.8086   40.1912   34.2076 O   0  0  0  0  0  0  0  0  0  0  0  0
   11.2387   40.7906   33.3693 O   0  0  0  0  0  0  0  0  0  0  0  0
   10.9192   40.6905   31.9959 C   0  0  0  0  0  0  0  0  0  0  0  0
   11.5177   39.3823   31.4410 C   0  0  0  0  0  0  0  0  0  0  0  0
   12.7496   39.0891   32.0755 O   0  0  0  0  0  0  0  0  0  0  0  0
   10.6037   38.1899   31.6659 C   0  0  0  0  0  0  0  0  0  0  0  0
   12.9401   37.6833   32.0276 C   0  0  0  0  0  0  0  0  0  0  0  0
    9.6377   38.0785   30.6474 O   0  0  0  0  0  0  0  0  0  0  0  0
   11.5803   37.0203   31.6937 C   0  0  0  0  0  0  0  0  0  0  0  0
   13.4902   37.2177   33.3237 N   0  0  0  0  0  0  0  0  0  0  0  0
   11.6117   36.3192   30.4680 O   0  0  0  0  0  0  0  0  0  0  0  0
   14.4759   36.3271   33.5731 C   0  0  0  0  0  0  0  0  0  0  0  0
   13.1176   37.6317   34.5688 C   0  0  0  0  0  0  0  0  0  0  0  0
   15.2064   35.6141   32.6742 N   0  0  0  0  0  0  0  0  0  0  0  0
   14.6729   36.2274   34.9184 C   0  0  0  0  0  0  0  0  0  0  0  0
   13.8221   37.0457   35.5783 N   0  0  0  0  0  0  0  0  0  0  0  0
   16.1637   34.7596   33.1549 C   0  0  0  0  0  0  0  0  0  0  0  0
   15.6514   35.3493   35.4133 C   0  0  0  0  0  0  0  0  0  0  0  0
   16.3791   34.6311   34.5044 N   0  0  0  0  0  0  0  0  0  0  0  0
   15.9001   35.1935   36.8091 N   0  0  0  0  0  0  0  0  0  0  0  0
    9.7652   45.0039   32.1615 H   0  0  0  0  0  0  0  0  0  0  0  0
   11.8940   45.6802   32.9221 H   0  0  0  0  0  0  0  0  0  0  0  0
   10.8428   46.9571   33.0542 H   0  0  0  0  0  0  0  0  0  0  0  0
    7.8672   44.8943   33.8877 H   0  0  0  0  0  0  0  0  0  0  0  0
    8.8833   45.8536   35.0155 H   0  0  0  0  0  0  0  0  0  0  0  0
    7.8621   48.6766   31.1668 H   0  0  0  0  0  0  0  0  0  0  0  0
    6.7647   47.5945   30.2883 H   0  0  0  0  0  0  0  0  0  0  0  0
    4.8468   46.5541   31.9896 H   0  0  0  0  0  0  0  0  0  0  0  0
    4.3181   51.3636   33.0684 H   0  0  0  0  0  0  0  0  0  0  0  0
    2.7461   47.3829   32.9657 H   0  0  0  0  0  0  0  0  0  0  0  0
    2.4756   49.7857   33.4908 H   0  0  0  0  0  0  0  0  0  0  0  0
    9.8313   40.7398   31.7557 H   0  0  0  0  0  0  0  0  0  0  0  0
   11.4002   41.5453   31.4742 H   0  0  0  0  0  0  0  0  0  0  0  0
   11.6991   39.5089   30.3487 H   0  0  0  0  0  0  0  0  0  0  0  0
   10.1131   38.2590   32.6664 H   0  0  0  0  0  0  0  0  0  0  0  0
   13.6800   37.4625   31.2265 H   0  0  0  0  0  0  0  0  0  0  0  0
    8.8953   38.6909   30.8891 H   0  0  0  0  0  0  0  0  0  0  0  0
   11.2830   36.3060   32.4929 H   0  0  0  0  0  0  0  0  0  0  0  0
   11.8859   36.9588   29.7593 H   0  0  0  0  0  0  0  0  0  0  0  0
   12.3360   38.3600   34.7441 H   0  0  0  0  0  0  0  0  0  0  0  0
   16.7572   34.1792   32.4621 H   0  0  0  0  0  0  0  0  0  0  0  0
   15.3528   35.7357   37.5140 H   0  0  0  0  0  0  0  0  0  0  0  0
   16.6362   34.5318   37.1416 H   0  0  0  0  0  0  0  0  0  0  0  0
  1  2  2  0
  1  3  1  0
  3  4  1  0
  4  5  1  0
  6  1  1  0
  7  6  1  0
  6  8  1  0
  8  9  1  0
  9 10  1  0
  9 11  2  0
 10 12  1  0
 12 13  1  0
 13 14  2  0
 15 13  1  0
 14 16  1  0
 14 17  1  0
 18 15  2  0
 16 19  1  0
 16 20  2  0
 17 21  2  0
 21 18  1  0
  4 22  2  0
  4 23  1  0
 24 23  1  0
 24 25  1  0
 25 26  1  0
 25 27  1  0
 26 28  1  0
 27 29  1  0
 27 30  1  0
 30 28  1  0
 28 31  1  0
 30 32  1  0
 33 31  1  0
 34 31  1  0
 35 33  2  0
 33 36  1  0
 37 34  2  0
 38 35  1  0
 36 39  2  0
 36 37  1  0
 40 38  2  0
 40 39  1  0
 39 41  1  0
  6 42  1  6
  7 43  1  0
  7 44  1  0
  8 45  1  0
  8 46  1  0
 12 47  1  0
 12 48  1  0
 15 49  1  0
 17 50  1  0
 18 51  1  0
 21 52  1  0
 24 53  1  0
 24 54  1  0
 25 55  1  0
 27 56  1  0
 28 57  1  0
 29 58  1  0
 30 59  1  0
 32 60  1  0
 34 61  1  0
 38 62  1  0
 41 63  1  0
 41 64  1  0
M  CHG  3   5  -1  16   1  19  -1
M  END
>  <EmbedRMS>  (9) 
0.08839150643475523

$$$$

     RDKit          3D

 64 67  0  0  0  0  0  0  0  0999 V2000
   10.2845   43.7742   33.8067 C   0  0  0  0  0  0  0  0  0  0  0  0
   11.4069   43.5903   34.3637 O   0  0  0  0  0  0  0  0  0  0  0  0
    9.3684   42.7307   33.6984 O   0  0  0  0  0  0  0  0  0  0  0  0
    9.8865   41.2339   34.2831 P   0  0  0  0  0  5  0  0  0  0  0  0
   10.3659   41.4695   35.8740 O   0  0  0  0  0  1  0  0  0  0  0  0
    9.9491   45.1164   33.2548 C   0  0  2  0  0  0  0  0  0  0  0  0
   11.0754   46.0281   33.4734 N   0  0  0  0  0  0  0  0  0  0  0  0
    8.6780   45.6531   33.9424 C   0  0  0  0  0  0  0  0  0  0  0  0
    8.1790   46.9028   33.2852 C   0  0  0  0  0  0  0  0  0  0  0  0
    8.4898   48.1451   33.8447 O   0  0  0  0  0  0  0  0  0  0  0  0
    7.5110   46.8260   32.2179 O   0  0  0  0  0  0  0  0  0  0  0  0
    8.0784   49.3780   33.2594 C   0  0  0  0  0  0  0  0  0  0  0  0
    8.5493   50.5527   34.0866 C   0  0  0  0  0  0  0  0  0  0  0  0
    8.8105   51.8180   33.4969 C   0  0  0  0  0  0  0  0  0  0  0  0
    8.7060   50.4028   35.4791 C   0  0  0  0  0  0  0  0  0  0  0  0
    8.5675   52.0647   32.1008 N   0  0  0  0  0  4  0  0  0  0  0  0
    9.3027   52.8628   34.3004 C   0  0  0  0  0  0  0  0  0  0  0  0
    9.1773   51.4581   36.2613 C   0  0  0  0  0  0  0  0  0  0  0  0
    7.4247   51.5897   31.4996 O   0  0  0  0  0  1  0  0  0  0  0  0
    9.2883   52.8671   31.4719 O   0  0  0  0  0  0  0  0  0  0  0  0
    9.4865   52.6816   35.6714 C   0  0  0  0  0  0  0  0  0  0  0  0
    8.8088   40.1911   34.2072 O   0  0  0  0  0  0  0  0  0  0  0  0
   11.2391   40.7899   33.3683 O   0  0  0  0  0  0  0  0  0  0  0  0
   10.9200   40.6894   31.9945 C   0  0  0  0  0  0  0  0  0  0  0  0
   11.5173   39.3800   31.4395 C   0  0  0  0  0  0  0  0  0  0  0  0
   12.7480   39.0860   32.0731 O   0  0  0  0  0  0  0  0  0  0  0  0
   10.6032   38.1891   31.6666 C   0  0  0  0  0  0  0  0  0  0  0  0
   12.9336   37.6795   32.0279 C   0  0  0  0  0  0  0  0  0  0  0  0
    9.6397   38.0777   30.6457 O   0  0  0  0  0  0  0  0  0  0  0  0
   11.5739   37.0153   31.7057 C   0  0  0  0  0  0  0  0  0  0  0  0
   13.4903   37.2177   33.3231 N   0  0  0  0  0  0  0  0  0  0  0  0
   11.6210   36.3375   30.4695 O   0  0  0  0  0  0  0  0  0  0  0  0
   14.4761   36.3273   33.5725 C   0  0  0  0  0  0  0  0  0  0  0  0
   13.1179   37.6316   34.5684 C   0  0  0  0  0  0  0  0  0  0  0  0
   15.2063   35.6138   32.6737 N   0  0  0  0  0  0  0  0  0  0  0  0
   14.6734   36.2277   34.9180 C   0  0  0  0  0  0  0  0  0  0  0  0
   13.8225   37.0459   35.5779 N   0  0  0  0  0  0  0  0  0  0  0  0
   16.1636   34.7594   33.1546 C   0  0  0  0  0  0  0  0  0  0  0  0
   15.6515   35.3494   35.4129 C   0  0  0  0  0  0  0  0  0  0  0  0
   16.3791   34.6311   34.5041 N   0  0  0  0  0  0  0  0  0  0  0  0
   15.9001   35.1935   36.8088 N   0  0  0  0  0  0  0  0  0  0  0  0
    9.7634   45.0049   32.1622 H   0  0  0  0  0  0  0  0  0  0  0  0
   11.8957   45.6766   32.9262 H   0  0  0  0  0  0  0  0  0  0  0  0
   10.8463   46.9551   33.0478 H   0  0  0  0  0  0  0  0  0  0  0  0
    7.8676   44.8925   33.8962 H   0  0  0  0  0  0  0  0  0  0  0  0
    8.8865   45.8579   35.0155 H   0  0  0  0  0  0  0  0  0  0  0  0
    8.5113   49.4324   32.2376 H   0  0  0  0  0  0  0  0  0  0  0  0
    6.9696   49.4067   33.1917 H   0  0  0  0  0  0  0  0  0  0  0  0
    8.4736   49.4637   35.9652 H   0  0  0  0  0  0  0  0  0  0  0  0
    9.5189   53.8312   33.8670 H   0  0  0  0  0  0  0  0  0  0  0  0
    9.3054   51.3253   37.3279 H   0  0  0  0  0  0  0  0  0  0  0  0
    9.8545   53.4974   36.2802 H   0  0  0  0  0  0  0  0  0  0  0  0
   11.4019   41.5435   31.4726 H   0  0  0  0  0  0  0  0  0  0  0  0
    9.8321   40.7398   31.7543 H   0  0  0  0  0  0  0  0  0  0  0  0
   11.6984   39.5040   30.3468 H   0  0  0  0  0  0  0  0  0  0  0  0
   10.1091   38.2633   32.6649 H   0  0  0  0  0  0  0  0  0  0  0  0
   13.6656   37.4538   31.2207 H   0  0  0  0  0  0  0  0  0  0  0  0
    8.8966   38.6901   30.8852 H   0  0  0  0  0  0  0  0  0  0  0  0
   11.2845   36.3060   32.5175 H   0  0  0  0  0  0  0  0  0  0  0  0
   10.8523   35.7094   30.4590 H   0  0  0  0  0  0  0  0  0  0  0  0
   12.3353   38.3588   34.7439 H   0  0  0  0  0  0  0  0  0  0  0  0
   16.7570   34.1788   32.4619 H   0  0  0  0  0  0  0  0  0  0  0  0
   15.3529   35.7359   37.5136 H   0  0  0  0  0  0  0  0  0  0  0  0
   16.6360   34.5317   37.1414 H   0  0  0  0  0  0  0  0  0  0  0  0
  1  2  2  0
  1  3  1  0
  3  4  1  0
  4  5  1  0
  6  1  1  0
  7  6  1  0
  6  8  1  0
  8  9  1  0
  9 10  1  0
  9 11  2  0
 10 12  1  0
 12 13  1  0
 13 14  2  0
 15 13  1  0
 14 16  1  0
 14 17  1  0
 18 15  2  0
 16 19  1  0
 16 20  2  0
 17 21  2  0
 21 18  1  0
  4 22  2  0
  4 23  1  0
 24 23  1  0
 24 25  1  0
 25 26  1  0
 25 27  1  0
 26 28  1  0
 27 29  1  0
 27 30  1  0
 30 28  1  0
 28 31  1  0
 30 32  1  0
 33 31  1  0
 34 31  1  0
 35 33  2  0
 33 36  1  0
 37 34  2  0
 38 35  1  0
 36 39  2  0
 36 37  1  0
 40 38  2  0
 40 39  1  0
 39 41  1  0
  6 42  1  6
  7 43  1  0
  7 44  1  0
  8 45  1  0
  8 46  1  0
 12 47  1  0
 12 48  1  0
 15 49  1  0
 17 50  1  0
 18 51  1  0
 21 52  1  0
 24 53  1  0
 24 54  1  0
 25 55  1  0
 27 56  1  0
 28 57  1  0
 29 58  1  0
 30 59  1  0
 32 60  1  0
 34 61  1  0
 38 62  1  0
 41 63  1  0
 41 64  1  0
M  CHG  3   5  -1  16   1  19  -1
M  END
>  <EmbedRMS>  (10) 
0.08953605401842336

$$$$

     RDKit          3D

 64 67  0  0  0  0  0  0  0  0999 V2000
   10.2883   43.7706   33.8003 C   0  0  0  0  0  0  0  0  0  0  0  0
   11.4105   43.5873   34.3575 O   0  0  0  0  0  0  0  0  0  0  0  0
    9.3682   42.7305   33.6978 O   0  0  0  0  0  0  0  0  0  0  0  0
    9.8850   41.2344   34.2845 P   0  0  0  0  0  5  0  0  0  0  0  0
   10.3654   41.4715   35.8748 O   0  0  0  0  0  1  0  0  0  0  0  0
    9.9523   45.1151   33.2551 C   0  0  2  0  0  0  0  0  0  0  0  0
   11.0689   46.0348   33.4807 N   0  0  0  0  0  0  0  0  0  0  0  0
    8.6592   45.6617   33.8943 C   0  0  0  0  0  0  0  0  0  0  0  0
    8.7936   45.8718   35.3742 C   0  0  0  0  0  0  0  0  0  0  0  0
    8.8472   44.7608   36.2231 O   0  0  0  0  0  0  0  0  0  0  0  0
    8.8719   47.0419   35.8385 O   0  0  0  0  0  0  0  0  0  0  0  0
    8.8896   44.8612   37.6442 C   0  0  0  0  0  0  0  0  0  0  0  0
    7.5500   45.3016   38.1859 C   0  0  0  0  0  0  0  0  0  0  0  0
    6.3408   44.6386   37.8425 C   0  0  0  0  0  0  0  0  0  0  0  0
    7.5011   46.4283   39.0270 C   0  0  0  0  0  0  0  0  0  0  0  0
    6.3265   43.4706   37.0007 N   0  0  0  0  0  4  0  0  0  0  0  0
    5.1210   45.1474   38.3255 C   0  0  0  0  0  0  0  0  0  0  0  0
    6.2814   46.9063   39.5074 C   0  0  0  0  0  0  0  0  0  0  0  0
    7.2863   42.4947   37.1353 O   0  0  0  0  0  1  0  0  0  0  0  0
    5.3551   43.2552   36.2465 O   0  0  0  0  0  0  0  0  0  0  0  0
    5.0935   46.2702   39.1535 C   0  0  0  0  0  0  0  0  0  0  0  0
    8.8070   40.1920   34.2096 O   0  0  0  0  0  0  0  0  0  0  0  0
   11.2364   40.7899   33.3681 O   0  0  0  0  0  0  0  0  0  0  0  0
   10.9136   40.6859   31.9953 C   0  0  0  0  0  0  0  0  0  0  0  0
   11.5169   39.3798   31.4411 C   0  0  0  0  0  0  0  0  0  0  0  0
   12.7488   39.0886   32.0762 O   0  0  0  0  0  0  0  0  0  0  0  0
   10.6051   38.1876   31.6660 C   0  0  0  0  0  0  0  0  0  0  0  0
   12.9412   37.6828   32.0278 C   0  0  0  0  0  0  0  0  0  0  0  0
    9.6359   38.0931   30.6503 O   0  0  0  0  0  0  0  0  0  0  0  0
   11.5827   37.0179   31.6936 C   0  0  0  0  0  0  0  0  0  0  0  0
   13.4909   37.2176   33.3239 N   0  0  0  0  0  0  0  0  0  0  0  0
   11.6140   36.3180   30.4675 O   0  0  0  0  0  0  0  0  0  0  0  0
   14.4762   36.3270   33.5733 C   0  0  0  0  0  0  0  0  0  0  0  0
   13.1179   37.6316   34.5689 C   0  0  0  0  0  0  0  0  0  0  0  0
   15.2067   35.6140   32.6744 N   0  0  0  0  0  0  0  0  0  0  0  0
   14.6731   36.2273   34.9186 C   0  0  0  0  0  0  0  0  0  0  0  0
   13.8223   37.0456   35.5785 N   0  0  0  0  0  0  0  0  0  0  0  0
   16.1639   34.7595   33.1551 C   0  0  0  0  0  0  0  0  0  0  0  0
   15.6515   35.3491   35.4134 C   0  0  0  0  0  0  0  0  0  0  0  0
   16.3792   34.6310   34.5045 N   0  0  0  0  0  0  0  0  0  0  0  0
   15.9002   35.1933   36.8093 N   0  0  0  0  0  0  0  0  0  0  0  0
    9.7814   45.0091   32.1601 H   0  0  0  0  0  0  0  0  0  0  0  0
   10.8044   46.9745   33.1044 H   0  0  0  0  0  0  0  0  0  0  0  0
   11.8797   45.7187   32.8991 H   0  0  0  0  0  0  0  0  0  0  0  0
    8.3861   46.6223   33.4050 H   0  0  0  0  0  0  0  0  0  0  0  0
    7.8203   44.9566   33.7080 H   0  0  0  0  0  0  0  0  0  0  0  0
    9.1514   43.8728   38.0738 H   0  0  0  0  0  0  0  0  0  0  0  0
    9.7045   45.5586   37.9388 H   0  0  0  0  0  0  0  0  0  0  0  0
    8.4096   46.9485   39.3047 H   0  0  0  0  0  0  0  0  0  0  0  0
    4.1869   44.6618   38.0724 H   0  0  0  0  0  0  0  0  0  0  0  0
    6.2572   47.7766   40.1506 H   0  0  0  0  0  0  0  0  0  0  0  0
    4.1484   46.6457   39.5242 H   0  0  0  0  0  0  0  0  0  0  0  0
   11.3858   41.5434   31.4701 H   0  0  0  0  0  0  0  0  0  0  0  0
    9.8235   40.7210   31.7585 H   0  0  0  0  0  0  0  0  0  0  0  0
   11.6992   39.5069   30.3490 H   0  0  0  0  0  0  0  0  0  0  0  0
   10.1120   38.2721   32.6632 H   0  0  0  0  0  0  0  0  0  0  0  0
   13.6816   37.4632   31.2269 H   0  0  0  0  0  0  0  0  0  0  0  0
    9.0036   37.3829   30.9349 H   0  0  0  0  0  0  0  0  0  0  0  0
   11.2846   36.3040   32.4928 H   0  0  0  0  0  0  0  0  0  0  0  0
   11.8849   36.9591   29.7588 H   0  0  0  0  0  0  0  0  0  0  0  0
   12.3363   38.3599   34.7441 H   0  0  0  0  0  0  0  0  0  0  0  0
   16.7574   34.1790   32.4623 H   0  0  0  0  0  0  0  0  0  0  0  0
   16.6363   34.5317   37.1418 H   0  0  0  0  0  0  0  0  0  0  0  0
   15.3529   35.7356   37.5141 H   0  0  0  0  0  0  0  0  0  0  0  0
  1  2  2  0
  1  3  1  0
  3  4  1  0
  4  5  1  0
  6  1  1  0
  7  6  1  0
  6  8  1  0
  8  9  1  0
  9 10  1  0
  9 11  2  0
 10 12  1  0
 12 13  1  0
 13 14  2  0
 15 13  1  0
 14 16  1  0
 14 17  1  0
 18 15  2  0
 16 19  1  0
 16 20  2  0
 17 21  2  0
 21 18  1  0
  4 22  2  0
  4 23  1  0
 24 23  1  0
 24 25  1  0
 25 26  1  0
 25 27  1  0
 26 28  1  0
 27 29  1  0
 27 30  1  0
 30 28  1  0
 28 31  1  0
 30 32  1  0
 33 31  1  0
 34 31  1  0
 35 33  2  0
 33 36  1  0
 37 34  2  0
 38 35  1  0
 36 39  2  0
 36 37  1  0
 40 38  2  0
 40 39  1  0
 39 41  1  0
  6 42  1  6
  7 43  1  0
  7 44  1  0
  8 45  1  0
  8 46  1  0
 12 47  1  0
 12 48  1  0
 15 49  1  0
 17 50  1  0
 18 51  1  0
 21 52  1  0
 24 53  1  0
 24 54  1  0
 25 55  1  0
 27 56  1  0
 28 57  1  0
 29 58  1  0
 30 59  1  0
 32 60  1  0
 34 61  1  0
 38 62  1  0
 41 63  1  0
 41 64  1  0
M  CHG  3   5  -1  16   1  19  -1
M  END
>  <EmbedRMS>  (11) 
0.08789019445043549

$$$$

     RDKit          3D

 64 67  0  0  0  0  0  0  0  0999 V2000
   10.2850   43.7724   33.8066 C   0  0  0  0  0  0  0  0  0  0  0  0
   11.4106   43.5874   34.3562 O   0  0  0  0  0  0  0  0  0  0  0  0
    9.3667   42.7311   33.7011 O   0  0  0  0  0  0  0  0  0  0  0  0
    9.8856   41.2339   34.2841 P   0  0  0  0  0  5  0  0  0  0  0  0
   10.3657   41.4695   35.8747 O   0  0  0  0  0  1  0  0  0  0  0  0
    9.9581   45.1107   33.2440 C   0  0  2  0  0  0  0  0  0  0  0  0
   11.0675   46.0366   33.4848 N   0  0  0  0  0  0  0  0  0  0  0  0
    8.6200   45.6578   33.7908 C   0  0  0  0  0  0  0  0  0  0  0  0
    8.6116   45.8059   35.2835 C   0  0  0  0  0  0  0  0  0  0  0  0
    8.9605   47.0345   35.8560 O   0  0  0  0  0  0  0  0  0  0  0  0
    8.3142   44.8183   36.0101 O   0  0  0  0  0  0  0  0  0  0  0  0
    8.9916   47.2572   37.2657 C   0  0  0  0  0  0  0  0  0  0  0  0
    7.5984   47.2703   37.8587 C   0  0  0  0  0  0  0  0  0  0  0  0
    7.3414   46.7965   39.1719 C   0  0  0  0  0  0  0  0  0  0  0  0
    6.5317   47.7861   37.0972 C   0  0  0  0  0  0  0  0  0  0  0  0
    8.4038   46.3651   40.0390 N   0  0  0  0  0  4  0  0  0  0  0  0
    6.0174   46.7686   39.6460 C   0  0  0  0  0  0  0  0  0  0  0  0
    5.2274   47.7674   37.5931 C   0  0  0  0  0  0  0  0  0  0  0  0
    9.5594   47.1052   40.1391 O   0  0  0  0  0  1  0  0  0  0  0  0
    8.2099   45.4390   40.8535 O   0  0  0  0  0  0  0  0  0  0  0  0
    4.9690   47.2482   38.8600 C   0  0  0  0  0  0  0  0  0  0  0  0
    8.8082   40.1910   34.2080 O   0  0  0  0  0  0  0  0  0  0  0  0
   11.2384   40.7903   33.3687 O   0  0  0  0  0  0  0  0  0  0  0  0
   10.9193   40.6895   31.9950 C   0  0  0  0  0  0  0  0  0  0  0  0
   11.5170   39.3801   31.4398 C   0  0  0  0  0  0  0  0  0  0  0  0
   12.7478   39.0862   32.0734 O   0  0  0  0  0  0  0  0  0  0  0  0
   10.6031   38.1891   31.6667 C   0  0  0  0  0  0  0  0  0  0  0  0
   12.9335   37.6797   32.0280 C   0  0  0  0  0  0  0  0  0  0  0  0
    9.6397   38.0777   30.6456 O   0  0  0  0  0  0  0  0  0  0  0  0
   11.5739   37.0154   31.7057 C   0  0  0  0  0  0  0  0  0  0  0  0
   13.4903   37.2178   33.3231 N   0  0  0  0  0  0  0  0  0  0  0  0
   11.6211   36.3376   30.4695 O   0  0  0  0  0  0  0  0  0  0  0  0
   14.4761   36.3273   33.5725 C   0  0  0  0  0  0  0  0  0  0  0  0
   13.1179   37.6316   34.5684 C   0  0  0  0  0  0  0  0  0  0  0  0
   15.2063   35.6139   32.6737 N   0  0  0  0  0  0  0  0  0  0  0  0
   14.6733   36.2277   34.9180 C   0  0  0  0  0  0  0  0  0  0  0  0
   13.8225   37.0459   35.5779 N   0  0  0  0  0  0  0  0  0  0  0  0
   16.1636   34.7594   33.1546 C   0  0  0  0  0  0  0  0  0  0  0  0
   15.6515   35.3494   35.4129 C   0  0  0  0  0  0  0  0  0  0  0  0
   16.3791   34.6311   34.5041 N   0  0  0  0  0  0  0  0  0  0  0  0
   15.9001   35.1935   36.8088 N   0  0  0  0  0  0  0  0  0  0  0  0
    9.8480   44.9839   32.1447 H   0  0  0  0  0  0  0  0  0  0  0  0
   10.8536   46.9454   33.0132 H   0  0  0  0  0  0  0  0  0  0  0  0
   11.1596   46.2307   34.5085 H   0  0  0  0  0  0  0  0  0  0  0  0
    8.4114   46.6467   33.3287 H   0  0  0  0  0  0  0  0  0  0  0  0
    7.7914   44.9808   33.4880 H   0  0  0  0  0  0  0  0  0  0  0  0
    9.6222   46.4684   37.7276 H   0  0  0  0  0  0  0  0  0  0  0  0
    9.4681   48.2405   37.4598 H   0  0  0  0  0  0  0  0  0  0  0  0
    6.7052   48.1917   36.1082 H   0  0  0  0  0  0  0  0  0  0  0  0
    5.8002   46.3997   40.6405 H   0  0  0  0  0  0  0  0  0  0  0  0
    4.4146   48.1535   36.9915 H   0  0  0  0  0  0  0  0  0  0  0  0
    3.9560   47.2320   39.2411 H   0  0  0  0  0  0  0  0  0  0  0  0
    9.8314   40.7396   31.7550 H   0  0  0  0  0  0  0  0  0  0  0  0
   11.4009   41.5437   31.4729 H   0  0  0  0  0  0  0  0  0  0  0  0
   11.6982   39.5043   30.3471 H   0  0  0  0  0  0  0  0  0  0  0  0
   10.1089   38.2631   32.6650 H   0  0  0  0  0  0  0  0  0  0  0  0
   13.6656   37.4541   31.2207 H   0  0  0  0  0  0  0  0  0  0  0  0
    8.8965   38.6899   30.8852 H   0  0  0  0  0  0  0  0  0  0  0  0
   11.2846   36.3060   32.5175 H   0  0  0  0  0  0  0  0  0  0  0  0
   10.8523   35.7094   30.4590 H   0  0  0  0  0  0  0  0  0  0  0  0
   12.3353   38.3588   34.7440 H   0  0  0  0  0  0  0  0  0  0  0  0
   16.7570   34.1788   32.4619 H   0  0  0  0  0  0  0  0  0  0  0  0
   15.3529   35.7359   37.5136 H   0  0  0  0  0  0  0  0  0  0  0  0
   16.6360   34.5317   37.1413 H   0  0  0  0  0  0  0  0  0  0  0  0
  1  2  2  0
  1  3  1  0
  3  4  1  0
  4  5  1  0
  6  1  1  0
  7  6  1  0
  6  8  1  0
  8  9  1  0
  9 10  1  0
  9 11  2  0
 10 12  1  0
 12 13  1  0
 13 14  2  0
 15 13  1  0
 14 16  1  0
 14 17  1  0
 18 15  2  0
 16 19  1  0
 16 20  2  0
 17 21  2  0
 21 18  1  0
  4 22  2  0
  4 23  1  0
 24 23  1  0
 24 25  1  0
 25 26  1  0
 25 27  1  0
 26 28  1  0
 27 29  1  0
 27 30  1  0
 30 28  1  0
 28 31  1  0
 30 32  1  0
 33 31  1  0
 34 31  1  0
 35 33  2  0
 33 36  1  0
 37 34  2  0
 38 35  1  0
 36 39  2  0
 36 37  1  0
 40 38  2  0
 40 39  1  0
 39 41  1  0
  6 42  1  6
  7 43  1  0
  7 44  1  0
  8 45  1  0
  8 46  1  0
 12 47  1  0
 12 48  1  0
 15 49  1  0
 17 50  1  0
 18 51  1  0
 21 52  1  0
 24 53  1  0
 24 54  1  0
 25 55  1  0
 27 56  1  0
 28 57  1  0
 29 58  1  0
 30 59  1  0
 32 60  1  0
 34 61  1  0
 38 62  1  0
 41 63  1  0
 41 64  1  0
M  CHG  3   5  -1  16   1  19  -1
M  END
>  <EmbedRMS>  (12) 
0.08932722726814415

$$$$

     RDKit          3D

 64 67  0  0  0  0  0  0  0  0999 V2000
   10.2828   43.7755   33.8076 C   0  0  0  0  0  0  0  0  0  0  0  0
   11.4085   43.5915   34.3577 O   0  0  0  0  0  0  0  0  0  0  0  0
    9.3667   42.7319   33.7012 O   0  0  0  0  0  0  0  0  0  0  0  0
    9.8864   41.2345   34.2833 P   0  0  0  0  0  5  0  0  0  0  0  0
   10.3676   41.4693   35.8737 O   0  0  0  0  0  1  0  0  0  0  0  0
    9.9533   45.1119   33.2436 C   0  0  2  0  0  0  0  0  0  0  0  0
   11.0726   46.0267   33.4848 N   0  0  0  0  0  0  0  0  0  0  0  0
    8.6402   45.6443   33.8552 C   0  0  0  0  0  0  0  0  0  0  0  0
    8.2239   46.9357   33.2231 C   0  0  0  0  0  0  0  0  0  0  0  0
    8.5652   48.1437   33.8410 O   0  0  0  0  0  0  0  0  0  0  0  0
    7.6095   46.9232   32.1220 O   0  0  0  0  0  0  0  0  0  0  0  0
    8.1831   49.4228   33.3388 C   0  0  0  0  0  0  0  0  0  0  0  0
    6.7142   49.6752   33.5843 C   0  0  0  0  0  0  0  0  0  0  0  0
    6.2131   50.0739   34.8544 C   0  0  0  0  0  0  0  0  0  0  0  0
    5.8189   49.5259   32.5091 C   0  0  0  0  0  0  0  0  0  0  0  0
    7.0693   50.2388   36.0004 N   0  0  0  0  0  4  0  0  0  0  0  0
    4.8385   50.3381   34.9935 C   0  0  0  0  0  0  0  0  0  0  0  0
    4.4569   49.7783   32.6747 C   0  0  0  0  0  0  0  0  0  0  0  0
    6.7343   51.1426   36.9825 O   0  0  0  0  0  1  0  0  0  0  0  0
    8.0240   49.4617   36.2041 O   0  0  0  0  0  0  0  0  0  0  0  0
    3.9683   50.1872   33.9133 C   0  0  0  0  0  0  0  0  0  0  0  0
    8.8087   40.1917   34.2083 O   0  0  0  0  0  0  0  0  0  0  0  0
   11.2376   40.7913   33.3656 O   0  0  0  0  0  0  0  0  0  0  0  0
   10.9142   40.6851   31.9930 C   0  0  0  0  0  0  0  0  0  0  0  0
   11.5166   39.3773   31.4394 C   0  0  0  0  0  0  0  0  0  0  0  0
   12.7471   39.0855   32.0740 O   0  0  0  0  0  0  0  0  0  0  0  0
   10.6047   38.1867   31.6670 C   0  0  0  0  0  0  0  0  0  0  0  0
   12.9345   37.6791   32.0282 C   0  0  0  0  0  0  0  0  0  0  0  0
    9.6378   38.0917   30.6489 O   0  0  0  0  0  0  0  0  0  0  0  0
   11.5761   37.0129   31.7057 C   0  0  0  0  0  0  0  0  0  0  0  0
   13.4909   37.2177   33.3234 N   0  0  0  0  0  0  0  0  0  0  0  0
   11.6234   36.3371   30.4684 O   0  0  0  0  0  0  0  0  0  0  0  0
   14.4765   36.3272   33.5727 C   0  0  0  0  0  0  0  0  0  0  0  0
   13.1182   37.6315   34.5685 C   0  0  0  0  0  0  0  0  0  0  0  0
   15.2066   35.6137   32.6739 N   0  0  0  0  0  0  0  0  0  0  0  0
   14.6736   36.2276   34.9182 C   0  0  0  0  0  0  0  0  0  0  0  0
   13.8227   37.0457   35.5781 N   0  0  0  0  0  0  0  0  0  0  0  0
   16.1638   34.7593   33.1548 C   0  0  0  0  0  0  0  0  0  0  0  0
   15.6517   35.3492   35.4131 C   0  0  0  0  0  0  0  0  0  0  0  0
   16.3792   34.6309   34.5043 N   0  0  0  0  0  0  0  0  0  0  0  0
   15.9002   35.1934   36.8090 N   0  0  0  0  0  0  0  0  0  0  0  0
    9.8200   44.9856   32.1459 H   0  0  0  0  0  0  0  0  0  0  0  0
   11.0771   46.3256   34.4880 H   0  0  0  0  0  0  0  0  0  0  0  0
   10.9431   46.8845   32.9008 H   0  0  0  0  0  0  0  0  0  0  0  0
    7.8253   44.9025   33.7044 H   0  0  0  0  0  0  0  0  0  0  0  0
    8.7590   45.7917   34.9510 H   0  0  0  0  0  0  0  0  0  0  0  0
    8.4335   49.4928   32.2572 H   0  0  0  0  0  0  0  0  0  0  0  0
    8.7846   50.2058   33.8460 H   0  0  0  0  0  0  0  0  0  0  0  0
    6.1770   49.2225   31.5331 H   0  0  0  0  0  0  0  0  0  0  0  0
    4.4342   50.6473   35.9491 H   0  0  0  0  0  0  0  0  0  0  0  0
    3.7797   49.6619   31.8384 H   0  0  0  0  0  0  0  0  0  0  0  0
    2.9116   50.3860   34.0382 H   0  0  0  0  0  0  0  0  0  0  0  0
   11.3867   41.5415   31.4662 H   0  0  0  0  0  0  0  0  0  0  0  0
    9.8241   40.7211   31.7568 H   0  0  0  0  0  0  0  0  0  0  0  0
   11.6987   39.5012   30.3468 H   0  0  0  0  0  0  0  0  0  0  0  0
   10.1095   38.2771   32.6629 H   0  0  0  0  0  0  0  0  0  0  0  0
   13.6672   37.4545   31.2213 H   0  0  0  0  0  0  0  0  0  0  0  0
    8.9779   37.4157   30.9534 H   0  0  0  0  0  0  0  0  0  0  0  0
   11.2861   36.3041   32.5177 H   0  0  0  0  0  0  0  0  0  0  0  0
   10.8690   35.6918   30.4657 H   0  0  0  0  0  0  0  0  0  0  0  0
   12.3356   38.3587   34.7440 H   0  0  0  0  0  0  0  0  0  0  0  0
   16.7572   34.1786   32.4621 H   0  0  0  0  0  0  0  0  0  0  0  0
   15.3530   35.7357   37.5138 H   0  0  0  0  0  0  0  0  0  0  0  0
   16.6361   34.5315   37.1415 H   0  0  0  0  0  0  0  0  0  0  0  0
  1  2  2  0
  1  3  1  0
  3  4  1  0
  4  5  1  0
  6  1  1  0
  7  6  1  0
  6  8  1  0
  8  9  1  0
  9 10  1  0
  9 11  2  0
 10 12  1  0
 12 13  1  0
 13 14  2  0
 15 13  1  0
 14 16  1  0
 14 17  1  0
 18 15  2  0
 16 19  1  0
 16 20  2  0
 17 21  2  0
 21 18  1  0
  4 22  2  0
  4 23  1  0
 24 23  1  0
 24 25  1  0
 25 26  1  0
 25 27  1  0
 26 28  1  0
 27 29  1  0
 27 30  1  0
 30 28  1  0
 28 31  1  0
 30 32  1  0
 33 31  1  0
 34 31  1  0
 35 33  2  0
 33 36  1  0
 37 34  2  0
 38 35  1  0
 36 39  2  0
 36 37  1  0
 40 38  2  0
 40 39  1  0
 39 41  1  0
  6 42  1  6
  7 43  1  0
  7 44  1  0
  8 45  1  0
  8 46  1  0
 12 47  1  0
 12 48  1  0
 15 49  1  0
 17 50  1  0
 18 51  1  0
 21 52  1  0
 24 53  1  0
 24 54  1  0
 25 55  1  0
 27 56  1  0
 28 57  1  0
 29 58  1  0
 30 59  1  0
 32 60  1  0
 34 61  1  0
 38 62  1  0
 41 63  1  0
 41 64  1  0
M  CHG  3   5  -1  16   1  19  -1
M  END
>  <EmbedRMS>  (13) 
0.08872837078948746

$$$$

     RDKit          3D

 64 67  0  0  0  0  0  0  0  0999 V2000
   10.2843   43.7742   33.8072 C   0  0  0  0  0  0  0  0  0  0  0  0
   11.4068   43.5903   34.3637 O   0  0  0  0  0  0  0  0  0  0  0  0
    9.3679   42.7311   33.6990 O   0  0  0  0  0  0  0  0  0  0  0  0
    9.8863   41.2340   34.2827 P   0  0  0  0  0  5  0  0  0  0  0  0
   10.3670   41.4692   35.8733 O   0  0  0  0  0  1  0  0  0  0  0  0
    9.9500   45.1153   33.2533 C   0  0  2  0  0  0  0  0  0  0  0  0
   11.0750   46.0284   33.4737 N   0  0  0  0  0  0  0  0  0  0  0  0
    8.6746   45.6515   33.9335 C   0  0  0  0  0  0  0  0  0  0  0  0
    8.2031   46.9203   33.2932 C   0  0  0  0  0  0  0  0  0  0  0  0
    7.7582   46.8960   31.9669 O   0  0  0  0  0  0  0  0  0  0  0  0
    8.2343   48.0010   33.9431 O   0  0  0  0  0  0  0  0  0  0  0  0
    7.4409   48.0746   31.2294 C   0  0  0  0  0  0  0  0  0  0  0  0
    8.6867   48.8881   30.9594 C   0  0  0  0  0  0  0  0  0  0  0  0
    9.8458   48.3257   30.3576 C   0  0  0  0  0  0  0  0  0  0  0  0
    8.7088   50.2353   31.3650 C   0  0  0  0  0  0  0  0  0  0  0  0
    9.8823   46.9599   29.9023 N   0  0  0  0  0  4  0  0  0  0  0  0
   10.9972   49.1226   30.2164 C   0  0  0  0  0  0  0  0  0  0  0  0
    9.8566   51.0110   31.2001 C   0  0  0  0  0  0  0  0  0  0  0  0
    8.7874   46.3906   29.2954 O   0  0  0  0  0  1  0  0  0  0  0  0
   10.9592   46.3279   29.9065 O   0  0  0  0  0  0  0  0  0  0  0  0
   11.0000   50.4544   30.6320 C   0  0  0  0  0  0  0  0  0  0  0  0
    8.8084   40.1914   34.2077 O   0  0  0  0  0  0  0  0  0  0  0  0
   11.2377   40.7905   33.3656 O   0  0  0  0  0  0  0  0  0  0  0  0
   10.9146   40.6851   31.9928 C   0  0  0  0  0  0  0  0  0  0  0  0
   11.5167   39.3773   31.4392 C   0  0  0  0  0  0  0  0  0  0  0  0
   12.7473   39.0854   32.0738 O   0  0  0  0  0  0  0  0  0  0  0  0
   10.6047   38.1868   31.6669 C   0  0  0  0  0  0  0  0  0  0  0  0
   12.9346   37.6790   32.0282 C   0  0  0  0  0  0  0  0  0  0  0  0
    9.6378   38.0918   30.6488 O   0  0  0  0  0  0  0  0  0  0  0  0
   11.5761   37.0129   31.7056 C   0  0  0  0  0  0  0  0  0  0  0  0
   13.4909   37.2177   33.3233 N   0  0  0  0  0  0  0  0  0  0  0  0
   11.6233   36.3371   30.4684 O   0  0  0  0  0  0  0  0  0  0  0  0
   14.4765   36.3271   33.5727 C   0  0  0  0  0  0  0  0  0  0  0  0
   13.1182   37.6315   34.5685 C   0  0  0  0  0  0  0  0  0  0  0  0
   15.2066   35.6137   32.6739 N   0  0  0  0  0  0  0  0  0  0  0  0
   14.6736   36.2276   34.9182 C   0  0  0  0  0  0  0  0  0  0  0  0
   13.8227   37.0457   35.5781 N   0  0  0  0  0  0  0  0  0  0  0  0
   16.1638   34.7592   33.1548 C   0  0  0  0  0  0  0  0  0  0  0  0
   15.6517   35.3492   35.4131 C   0  0  0  0  0  0  0  0  0  0  0  0
   16.3792   34.6309   34.5043 N   0  0  0  0  0  0  0  0  0  0  0  0
   15.9002   35.1934   36.8090 N   0  0  0  0  0  0  0  0  0  0  0  0
    9.7689   45.0003   32.1609 H   0  0  0  0  0  0  0  0  0  0  0  0
   11.8944   45.6807   32.9230 H   0  0  0  0  0  0  0  0  0  0  0  0
   10.8442   46.9573   33.0529 H   0  0  0  0  0  0  0  0  0  0  0  0
    8.8666   45.8201   35.0166 H   0  0  0  0  0  0  0  0  0  0  0  0
    7.8553   44.9054   33.8455 H   0  0  0  0  0  0  0  0  0  0  0  0
    6.6807   48.6610   31.7910 H   0  0  0  0  0  0  0  0  0  0  0  0
    6.9695   47.7913   30.2665 H   0  0  0  0  0  0  0  0  0  0  0  0
    7.8382   50.6868   31.8246 H   0  0  0  0  0  0  0  0  0  0  0  0
   11.8937   48.7149   29.7668 H   0  0  0  0  0  0  0  0  0  0  0  0
    9.8613   52.0448   31.5208 H   0  0  0  0  0  0  0  0  0  0  0  0
   11.8907   51.0572   30.5096 H   0  0  0  0  0  0  0  0  0  0  0  0
    9.8246   40.7215   31.7562 H   0  0  0  0  0  0  0  0  0  0  0  0
   11.3876   41.5416   31.4665 H   0  0  0  0  0  0  0  0  0  0  0  0
   11.6988   39.5011   30.3465 H   0  0  0  0  0  0  0  0  0  0  0  0
   10.1096   38.2773   32.6628 H   0  0  0  0  0  0  0  0  0  0  0  0
   13.6672   37.4543   31.2212 H   0  0  0  0  0  0  0  0  0  0  0  0
    8.9779   37.4158   30.9534 H   0  0  0  0  0  0  0  0  0  0  0  0
   11.2860   36.3041   32.5177 H   0  0  0  0  0  0  0  0  0  0  0  0
   10.8689   35.6919   30.4657 H   0  0  0  0  0  0  0  0  0  0  0  0
   12.3356   38.3587   34.7439 H   0  0  0  0  0  0  0  0  0  0  0  0
   16.7572   34.1786   32.4621 H   0  0  0  0  0  0  0  0  0  0  0  0
   16.6361   34.5315   37.1415 H   0  0  0  0  0  0  0  0  0  0  0  0
   15.3530   35.7358   37.5138 H   0  0  0  0  0  0  0  0  0  0  0  0
  1  2  2  0
  1  3  1  0
  3  4  1  0
  4  5  1  0
  6  1  1  0
  7  6  1  0
  6  8  1  0
  8  9  1  0
  9 10  1  0
  9 11  2  0
 10 12  1  0
 12 13  1  0
 13 14  2  0
 15 13  1  0
 14 16  1  0
 14 17  1  0
 18 15  2  0
 16 19  1  0
 16 20  2  0
 17 21  2  0
 21 18  1  0
  4 22  2  0
  4 23  1  0
 24 23  1  0
 24 25  1  0
 25 26  1  0
 25 27  1  0
 26 28  1  0
 27 29  1  0
 27 30  1  0
 30 28  1  0
 28 31  1  0
 30 32  1  0
 33 31  1  0
 34 31  1  0
 35 33  2  0
 33 36  1  0
 37 34  2  0
 38 35  1  0
 36 39  2  0
 36 37  1  0
 40 38  2  0
 40 39  1  0
 39 41  1  0
  6 42  1  6
  7 43  1  0
  7 44  1  0
  8 45  1  0
  8 46  1  0
 12 47  1  0
 12 48  1  0
 15 49  1  0
 17 50  1  0
 18 51  1  0
 21 52  1  0
 24 53  1  0
 24 54  1  0
 25 55  1  0
 27 56  1  0
 28 57  1  0
 29 58  1  0
 30 59  1  0
 32 60  1  0
 34 61  1  0
 38 62  1  0
 41 63  1  0
 41 64  1  0
M  CHG  3   5  -1  16   1  19  -1
M  END
>  <EmbedRMS>  (14) 
0.0890375821022839

$$$$

     RDKit          3D

 64 67  0  0  0  0  0  0  0  0999 V2000
   10.2863   43.7710   33.8097 C   0  0  0  0  0  0  0  0  0  0  0  0
   11.4104   43.5816   34.3607 O   0  0  0  0  0  0  0  0  0  0  0  0
    9.3668   42.7309   33.7017 O   0  0  0  0  0  0  0  0  0  0  0  0
    9.8847   41.2330   34.2838 P   0  0  0  0  0  5  0  0  0  0  0  0
   10.3658   41.4676   35.8743 O   0  0  0  0  0  1  0  0  0  0  0  0
    9.9579   45.1142   33.2527 C   0  0  2  0  0  0  0  0  0  0  0  0
   11.0671   46.0468   33.4717 N   0  0  0  0  0  0  0  0  0  0  0  0
    8.6700   45.6589   33.8936 C   0  0  0  0  0  0  0  0  0  0  0  0
    8.2742   46.9673   33.2828 C   0  0  0  0  0  0  0  0  0  0  0  0
    8.8450   48.1491   33.7631 O   0  0  0  0  0  0  0  0  0  0  0  0
    7.4620   46.9895   32.3177 O   0  0  0  0  0  0  0  0  0  0  0  0
    8.5344   49.4284   33.2224 C   0  0  0  0  0  0  0  0  0  0  0  0
    9.3454   50.4805   33.9326 C   0  0  0  0  0  0  0  0  0  0  0  0
    8.9264   51.0643   35.1590 C   0  0  0  0  0  0  0  0  0  0  0  0
   10.5634   50.8868   33.3581 C   0  0  0  0  0  0  0  0  0  0  0  0
    7.7202   50.6538   35.8290 N   0  0  0  0  0  4  0  0  0  0  0  0
    9.7114   52.0793   35.7354 C   0  0  0  0  0  0  0  0  0  0  0  0
   11.3358   51.8829   33.9566 C   0  0  0  0  0  0  0  0  0  0  0  0
    7.0309   51.5508   36.6127 O   0  0  0  0  0  1  0  0  0  0  0  0
    7.3854   49.4519   35.8590 O   0  0  0  0  0  0  0  0  0  0  0  0
   10.9067   52.4837   35.1385 C   0  0  0  0  0  0  0  0  0  0  0  0
    8.8070   40.1905   34.2079 O   0  0  0  0  0  0  0  0  0  0  0  0
   11.2364   40.7906   33.3670 O   0  0  0  0  0  0  0  0  0  0  0  0
   10.9135   40.6860   31.9943 C   0  0  0  0  0  0  0  0  0  0  0  0
   11.5170   39.3797   31.4407 C   0  0  0  0  0  0  0  0  0  0  0  0
   12.7487   39.0886   32.0762 O   0  0  0  0  0  0  0  0  0  0  0  0
   10.6051   38.1876   31.6657 C   0  0  0  0  0  0  0  0  0  0  0  0
   12.9411   37.6828   32.0278 C   0  0  0  0  0  0  0  0  0  0  0  0
    9.6359   38.0931   30.6500 O   0  0  0  0  0  0  0  0  0  0  0  0
   11.5827   37.0179   31.6936 C   0  0  0  0  0  0  0  0  0  0  0  0
   13.4908   37.2176   33.3240 N   0  0  0  0  0  0  0  0  0  0  0  0
   11.6141   36.3179   30.4675 O   0  0  0  0  0  0  0  0  0  0  0  0
   14.4762   36.3270   33.5734 C   0  0  0  0  0  0  0  0  0  0  0  0
   13.1178   37.6316   34.5689 C   0  0  0  0  0  0  0  0  0  0  0  0
   15.2067   35.6140   32.6744 N   0  0  0  0  0  0  0  0  0  0  0  0
   14.6730   36.2273   34.9187 C   0  0  0  0  0  0  0  0  0  0  0  0
   13.8222   37.0456   35.5786 N   0  0  0  0  0  0  0  0  0  0  0  0
   16.1639   34.7595   33.1552 C   0  0  0  0  0  0  0  0  0  0  0  0
   15.6515   35.3492   35.4135 C   0  0  0  0  0  0  0  0  0  0  0  0
   16.3792   34.6311   34.5047 N   0  0  0  0  0  0  0  0  0  0  0  0
   15.9003   35.1934   36.8094 N   0  0  0  0  0  0  0  0  0  0  0  0
    9.7945   45.0008   32.1579 H   0  0  0  0  0  0  0  0  0  0  0  0
   11.2851   46.1173   34.4933 H   0  0  0  0  0  0  0  0  0  0  0  0
   11.9187   45.6989   32.9728 H   0  0  0  0  0  0  0  0  0  0  0  0
    7.8397   44.9318   33.7542 H   0  0  0  0  0  0  0  0  0  0  0  0
    8.8173   45.7978   34.9871 H   0  0  0  0  0  0  0  0  0  0  0  0
    8.7630   49.4346   32.1335 H   0  0  0  0  0  0  0  0  0  0  0  0
    7.4479   49.6373   33.3261 H   0  0  0  0  0  0  0  0  0  0  0  0
   10.9125   50.4380   32.4359 H   0  0  0  0  0  0  0  0  0  0  0  0
    9.4082   52.5454   36.6645 H   0  0  0  0  0  0  0  0  0  0  0  0
   12.2674   52.1924   33.5001 H   0  0  0  0  0  0  0  0  0  0  0  0
   11.5060   53.2587   35.5990 H   0  0  0  0  0  0  0  0  0  0  0  0
    9.8235   40.7210   31.7576 H   0  0  0  0  0  0  0  0  0  0  0  0
   11.3857   41.5432   31.4686 H   0  0  0  0  0  0  0  0  0  0  0  0
   11.6995   39.5064   30.3485 H   0  0  0  0  0  0  0  0  0  0  0  0
   10.1119   38.2724   32.6629 H   0  0  0  0  0  0  0  0  0  0  0  0
   13.6817   37.4632   31.2270 H   0  0  0  0  0  0  0  0  0  0  0  0
    9.0037   37.3828   30.9346 H   0  0  0  0  0  0  0  0  0  0  0  0
   11.2845   36.3040   32.4928 H   0  0  0  0  0  0  0  0  0  0  0  0
   11.8851   36.9588   29.7588 H   0  0  0  0  0  0  0  0  0  0  0  0
   12.3362   38.3599   34.7440 H   0  0  0  0  0  0  0  0  0  0  0  0
   16.7574   34.1790   32.4625 H   0  0  0  0  0  0  0  0  0  0  0  0
   15.3529   35.7355   37.5143 H   0  0  0  0  0  0  0  0  0  0  0  0
   16.6362   34.5316   37.1418 H   0  0  0  0  0  0  0  0  0  0  0  0
  1  2  2  0
  1  3  1  0
  3  4  1  0
  4  5  1  0
  6  1  1  0
  7  6  1  0
  6  8  1  0
  8  9  1  0
  9 10  1  0
  9 11  2  0
 10 12  1  0
 12 13  1  0
 13 14  2  0
 15 13  1  0
 14 16  1  0
 14 17  1  0
 18 15  2  0
 16 19  1  0
 16 20  2  0
 17 21  2  0
 21 18  1  0
  4 22  2  0
  4 23  1  0
 24 23  1  0
 24 25  1  0
 25 26  1  0
 25 27  1  0
 26 28  1  0
 27 29  1  0
 27 30  1  0
 30 28  1  0
 28 31  1  0
 30 32  1  0
 33 31  1  0
 34 31  1  0
 35 33  2  0
 33 36  1  0
 37 34  2  0
 38 35  1  0
 36 39  2  0
 36 37  1  0
 40 38  2  0
 40 39  1  0
 39 41  1  0
  6 42  1  6
  7 43  1  0
  7 44  1  0
  8 45  1  0
  8 46  1  0
 12 47  1  0
 12 48  1  0
 15 49  1  0
 17 50  1  0
 18 51  1  0
 21 52  1  0
 24 53  1  0
 24 54  1  0
 25 55  1  0
 27 56  1  0
 28 57  1  0
 29 58  1  0
 30 59  1  0
 32 60  1  0
 34 61  1  0
 38 62  1  0
 41 63  1  0
 41 64  1  0
M  CHG  3   5  -1  16   1  19  -1
M  END
>  <EmbedRMS>  (15) 
0.0884249211588712

$$$$

     RDKit          3D

 64 67  0  0  0  0  0  0  0  0999 V2000
   10.2890   43.7679   33.8060 C   0  0  0  0  0  0  0  0  0  0  0  0
   11.4126   43.5787   34.3579 O   0  0  0  0  0  0  0  0  0  0  0  0
    9.3673   42.7300   33.7006 O   0  0  0  0  0  0  0  0  0  0  0  0
    9.8840   41.2329   34.2851 P   0  0  0  0  0  5  0  0  0  0  0  0
   10.3636   41.4693   35.8758 O   0  0  0  0  0  1  0  0  0  0  0  0
    9.9623   45.1126   33.2500 C   0  0  2  0  0  0  0  0  0  0  0  0
   11.0616   46.0541   33.4772 N   0  0  0  0  0  0  0  0  0  0  0  0
    8.6455   45.6676   33.8265 C   0  0  0  0  0  0  0  0  0  0  0  0
    8.6747   45.7927   35.3212 C   0  0  0  0  0  0  0  0  0  0  0  0
    8.4285   44.6626   36.1096 O   0  0  0  0  0  0  0  0  0  0  0  0
    8.9502   46.9027   35.8535 O   0  0  0  0  0  0  0  0  0  0  0  0
    8.4639   44.6815   37.5361 C   0  0  0  0  0  0  0  0  0  0  0  0
    7.2835   45.4336   38.1145 C   0  0  0  0  0  0  0  0  0  0  0  0
    7.3795   46.1480   39.3387 C   0  0  0  0  0  0  0  0  0  0  0  0
    6.0489   45.4033   37.4368 C   0  0  0  0  0  0  0  0  0  0  0  0
    8.5745   46.1285   40.1377 N   0  0  0  0  0  4  0  0  0  0  0  0
    6.2713   46.8836   39.7938 C   0  0  0  0  0  0  0  0  0  0  0  0
    4.9544   46.1239   37.9165 C   0  0  0  0  0  0  0  0  0  0  0  0
    8.9160   47.2302   40.8880 O   0  0  0  0  0  1  0  0  0  0  0  0
    9.1901   45.0589   40.3259 O   0  0  0  0  0  0  0  0  0  0  0  0
    5.0691   46.8728   39.0857 C   0  0  0  0  0  0  0  0  0  0  0  0
    8.8065   40.1903   34.2083 O   0  0  0  0  0  0  0  0  0  0  0  0
   11.2371   40.7894   33.3706 O   0  0  0  0  0  0  0  0  0  0  0  0
   10.9186   40.6903   31.9968 C   0  0  0  0  0  0  0  0  0  0  0  0
   11.5174   39.3824   31.4414 C   0  0  0  0  0  0  0  0  0  0  0  0
   12.7494   39.0893   32.0756 O   0  0  0  0  0  0  0  0  0  0  0  0
   10.6036   38.1899   31.6660 C   0  0  0  0  0  0  0  0  0  0  0  0
   12.9401   37.6834   32.0276 C   0  0  0  0  0  0  0  0  0  0  0  0
    9.6376   38.0785   30.6474 O   0  0  0  0  0  0  0  0  0  0  0  0
   11.5804   37.0204   31.6937 C   0  0  0  0  0  0  0  0  0  0  0  0
   13.4902   37.2177   33.3237 N   0  0  0  0  0  0  0  0  0  0  0  0
   11.6118   36.3193   30.4680 O   0  0  0  0  0  0  0  0  0  0  0  0
   14.4758   36.3271   33.5731 C   0  0  0  0  0  0  0  0  0  0  0  0
   13.1176   37.6317   34.5688 C   0  0  0  0  0  0  0  0  0  0  0  0
   15.2064   35.6141   32.6742 N   0  0  0  0  0  0  0  0  0  0  0  0
   14.6729   36.2274   34.9184 C   0  0  0  0  0  0  0  0  0  0  0  0
   13.8221   37.0457   35.5783 N   0  0  0  0  0  0  0  0  0  0  0  0
   16.1637   34.7597   33.1549 C   0  0  0  0  0  0  0  0  0  0  0  0
   15.6514   35.3493   35.4133 C   0  0  0  0  0  0  0  0  0  0  0  0
   16.3791   34.6312   34.5044 N   0  0  0  0  0  0  0  0  0  0  0  0
   15.9001   35.1935   36.8091 N   0  0  0  0  0  0  0  0  0  0  0  0
    9.8248   44.9972   32.1524 H   0  0  0  0  0  0  0  0  0  0  0  0
   11.3002   46.1008   34.4952 H   0  0  0  0  0  0  0  0  0  0  0  0
   11.9096   45.7246   32.9598 H   0  0  0  0  0  0  0  0  0  0  0  0
    7.8040   44.9999   33.5404 H   0  0  0  0  0  0  0  0  0  0  0  0
    8.4391   46.6626   33.3749 H   0  0  0  0  0  0  0  0  0  0  0  0
    8.4322   43.6353   37.9054 H   0  0  0  0  0  0  0  0  0  0  0  0
    9.4278   45.1327   37.8536 H   0  0  0  0  0  0  0  0  0  0  0  0
    5.9335   44.8318   36.5243 H   0  0  0  0  0  0  0  0  0  0  0  0
    6.3295   47.4451   40.7176 H   0  0  0  0  0  0  0  0  0  0  0  0
    4.0158   46.1039   37.3777 H   0  0  0  0  0  0  0  0  0  0  0  0
    4.2196   47.4334   39.4538 H   0  0  0  0  0  0  0  0  0  0  0  0
   11.4000   41.5455   31.4760 H   0  0  0  0  0  0  0  0  0  0  0  0
    9.8309   40.7398   31.7562 H   0  0  0  0  0  0  0  0  0  0  0  0
   11.6987   39.5095   30.3491 H   0  0  0  0  0  0  0  0  0  0  0  0
   10.1129   38.2587   32.6664 H   0  0  0  0  0  0  0  0  0  0  0  0
   13.6800   37.4628   31.2265 H   0  0  0  0  0  0  0  0  0  0  0  0
    8.8953   38.6909   30.8891 H   0  0  0  0  0  0  0  0  0  0  0  0
   11.2831   36.3060   32.4929 H   0  0  0  0  0  0  0  0  0  0  0  0
   11.8859   36.9590   29.7593 H   0  0  0  0  0  0  0  0  0  0  0  0
   12.3360   38.3600   34.7441 H   0  0  0  0  0  0  0  0  0  0  0  0
   16.7572   34.1793   32.4621 H   0  0  0  0  0  0  0  0  0  0  0  0
   15.3528   35.7357   37.5140 H   0  0  0  0  0  0  0  0  0  0  0  0
   16.6362   34.5318   37.1416 H   0  0  0  0  0  0  0  0  0  0  0  0
  1  2  2  0
  1  3  1  0
  3  4  1  0
  4  5  1  0
  6  1  1  0
  7  6  1  0
  6  8  1  0
  8  9  1  0
  9 10  1  0
  9 11  2  0
 10 12  1  0
 12 13  1  0
 13 14  2  0
 15 13  1  0
 14 16  1  0
 14 17  1  0
 18 15  2  0
 16 19  1  0
 16 20  2  0
 17 21  2  0
 21 18  1  0
  4 22  2  0
  4 23  1  0
 24 23  1  0
 24 25  1  0
 25 26  1  0
 25 27  1  0
 26 28  1  0
 27 29  1  0
 27 30  1  0
 30 28  1  0
 28 31  1  0
 30 32  1  0
 33 31  1  0
 34 31  1  0
 35 33  2  0
 33 36  1  0
 37 34  2  0
 38 35  1  0
 36 39  2  0
 36 37  1  0
 40 38  2  0
 40 39  1  0
 39 41  1  0
  6 42  1  6
  7 43  1  0
  7 44  1  0
  8 45  1  0
  8 46  1  0
 12 47  1  0
 12 48  1  0
 15 49  1  0
 17 50  1  0
 18 51  1  0
 21 52  1  0
 24 53  1  0
 24 54  1  0
 25 55  1  0
 27 56  1  0
 28 57  1  0
 29 58  1  0
 30 59  1  0
 32 60  1  0
 34 61  1  0
 38 62  1  0
 41 63  1  0
 41 64  1  0
M  CHG  3   5  -1  16   1  19  -1
M  END
>  <EmbedRMS>  (16) 
0.08897576771047594

$$$$

     RDKit          3D

 64 67  0  0  0  0  0  0  0  0999 V2000
   10.2829   43.7754   33.8074 C   0  0  0  0  0  0  0  0  0  0  0  0
   11.4086   43.5915   34.3577 O   0  0  0  0  0  0  0  0  0  0  0  0
    9.3670   42.7317   33.7010 O   0  0  0  0  0  0  0  0  0  0  0  0
    9.8865   41.2344   34.2838 P   0  0  0  0  0  5  0  0  0  0  0  0
   10.3666   41.4695   35.8744 O   0  0  0  0  0  1  0  0  0  0  0  0
    9.9532   45.1118   33.2437 C   0  0  2  0  0  0  0  0  0  0  0  0
   11.0727   46.0266   33.4849 N   0  0  0  0  0  0  0  0  0  0  0  0
    8.6400   45.6436   33.8556 C   0  0  0  0  0  0  0  0  0  0  0  0
    8.2266   46.9377   33.2273 C   0  0  0  0  0  0  0  0  0  0  0  0
    8.6000   48.1424   33.8287 O   0  0  0  0  0  0  0  0  0  0  0  0
    7.5794   46.9312   32.1446 O   0  0  0  0  0  0  0  0  0  0  0  0
    8.2674   49.4132   33.2790 C   0  0  0  0  0  0  0  0  0  0  0  0
    8.7898   50.5076   34.1764 C   0  0  0  0  0  0  0  0  0  0  0  0
    8.4457   50.5869   35.5547 C   0  0  0  0  0  0  0  0  0  0  0  0
    9.6770   51.4569   33.6353 C   0  0  0  0  0  0  0  0  0  0  0  0
    7.5360   49.6574   36.1729 N   0  0  0  0  0  4  0  0  0  0  0  0
    9.0262   51.5935   36.3471 C   0  0  0  0  0  0  0  0  0  0  0  0
   10.2280   52.4566   34.4376 C   0  0  0  0  0  0  0  0  0  0  0  0
    7.6655   49.3561   37.5093 O   0  0  0  0  0  1  0  0  0  0  0  0
    6.5313   49.2416   35.5607 O   0  0  0  0  0  0  0  0  0  0  0  0
    9.9068   52.5221   35.7914 C   0  0  0  0  0  0  0  0  0  0  0  0
    8.8091   40.1914   34.2078 O   0  0  0  0  0  0  0  0  0  0  0  0
   11.2390   40.7909   33.3682 O   0  0  0  0  0  0  0  0  0  0  0  0
   10.9195   40.6896   31.9946 C   0  0  0  0  0  0  0  0  0  0  0  0
   11.5171   39.3801   31.4397 C   0  0  0  0  0  0  0  0  0  0  0  0
   12.7479   39.0861   32.0733 O   0  0  0  0  0  0  0  0  0  0  0  0
   10.6031   38.1891   31.6666 C   0  0  0  0  0  0  0  0  0  0  0  0
   12.9335   37.6796   32.0280 C   0  0  0  0  0  0  0  0  0  0  0  0
    9.6397   38.0777   30.6456 O   0  0  0  0  0  0  0  0  0  0  0  0
   11.5739   37.0154   31.7057 C   0  0  0  0  0  0  0  0  0  0  0  0
   13.4903   37.2178   33.3231 N   0  0  0  0  0  0  0  0  0  0  0  0
   11.6211   36.3376   30.4695 O   0  0  0  0  0  0  0  0  0  0  0  0
   14.4761   36.3273   33.5725 C   0  0  0  0  0  0  0  0  0  0  0  0
   13.1179   37.6316   34.5684 C   0  0  0  0  0  0  0  0  0  0  0  0
   15.2063   35.6139   32.6737 N   0  0  0  0  0  0  0  0  0  0  0  0
   14.6734   36.2277   34.9180 C   0  0  0  0  0  0  0  0  0  0  0  0
   13.8225   37.0459   35.5779 N   0  0  0  0  0  0  0  0  0  0  0  0
   16.1636   34.7594   33.1546 C   0  0  0  0  0  0  0  0  0  0  0  0
   15.6515   35.3494   35.4129 C   0  0  0  0  0  0  0  0  0  0  0  0
   16.3791   34.6311   34.5041 N   0  0  0  0  0  0  0  0  0  0  0  0
   15.9001   35.1935   36.8088 N   0  0  0  0  0  0  0  0  0  0  0  0
    9.8196   44.9859   32.1460 H   0  0  0  0  0  0  0  0  0  0  0  0
   10.9457   46.8827   32.8978 H   0  0  0  0  0  0  0  0  0  0  0  0
   11.0751   46.3286   34.4872 H   0  0  0  0  0  0  0  0  0  0  0  0
    7.8247   44.9028   33.7023 H   0  0  0  0  0  0  0  0  0  0  0  0
    8.7582   45.7883   34.9519 H   0  0  0  0  0  0  0  0  0  0  0  0
    8.7077   49.4884   32.2603 H   0  0  0  0  0  0  0  0  0  0  0  0
    7.1667   49.5115   33.1696 H   0  0  0  0  0  0  0  0  0  0  0  0
    9.9535   51.4201   32.5888 H   0  0  0  0  0  0  0  0  0  0  0  0
    8.7829   51.6708   37.3992 H   0  0  0  0  0  0  0  0  0  0  0  0
   10.9112   53.1786   34.0090 H   0  0  0  0  0  0  0  0  0  0  0  0
   10.3391   53.2962   36.4122 H   0  0  0  0  0  0  0  0  0  0  0  0
    9.8315   40.7396   31.7549 H   0  0  0  0  0  0  0  0  0  0  0  0
   11.4008   41.5437   31.4721 H   0  0  0  0  0  0  0  0  0  0  0  0
   11.6983   39.5041   30.3470 H   0  0  0  0  0  0  0  0  0  0  0  0
   10.1090   38.2632   32.6649 H   0  0  0  0  0  0  0  0  0  0  0  0
   13.6656   37.4541   31.2207 H   0  0  0  0  0  0  0  0  0  0  0  0
    8.8965   38.6899   30.8852 H   0  0  0  0  0  0  0  0  0  0  0  0
   11.2846   36.3060   32.5175 H   0  0  0  0  0  0  0  0  0  0  0  0
   10.8523   35.7094   30.4590 H   0  0  0  0  0  0  0  0  0  0  0  0
   12.3353   38.3588   34.7439 H   0  0  0  0  0  0  0  0  0  0  0  0
   16.7570   34.1788   32.4619 H   0  0  0  0  0  0  0  0  0  0  0  0
   15.3529   35.7359   37.5136 H   0  0  0  0  0  0  0  0  0  0  0  0
   16.6360   34.5317   37.1413 H   0  0  0  0  0  0  0  0  0  0  0  0
  1  2  2  0
  1  3  1  0
  3  4  1  0
  4  5  1  0
  6  1  1  0
  7  6  1  0
  6  8  1  0
  8  9  1  0
  9 10  1  0
  9 11  2  0
 10 12  1  0
 12 13  1  0
 13 14  2  0
 15 13  1  0
 14 16  1  0
 14 17  1  0
 18 15  2  0
 16 19  1  0
 16 20  2  0
 17 21  2  0
 21 18  1  0
  4 22  2  0
  4 23  1  0
 24 23  1  0
 24 25  1  0
 25 26  1  0
 25 27  1  0
 26 28  1  0
 27 29  1  0
 27 30  1  0
 30 28  1  0
 28 31  1  0
 30 32  1  0
 33 31  1  0
 34 31  1  0
 35 33  2  0
 33 36  1  0
 37 34  2  0
 38 35  1  0
 36 39  2  0
 36 37  1  0
 40 38  2  0
 40 39  1  0
 39 41  1  0
  6 42  1  6
  7 43  1  0
  7 44  1  0
  8 45  1  0
  8 46  1  0
 12 47  1  0
 12 48  1  0
 15 49  1  0
 17 50  1  0
 18 51  1  0
 21 52  1  0
 24 53  1  0
 24 54  1  0
 25 55  1  0
 27 56  1  0
 28 57  1  0
 29 58  1  0
 30 59  1  0
 32 60  1  0
 34 61  1  0
 38 62  1  0
 41 63  1  0
 41 64  1  0
M  CHG  3   5  -1  16   1  19  -1
M  END
>  <EmbedRMS>  (17) 
0.08916454391568299

$$$$

     RDKit          3D

 64 67  0  0  0  0  0  0  0  0999 V2000
   10.2877   43.7688   33.8087 C   0  0  0  0  0  0  0  0  0  0  0  0
   11.4117   43.5793   34.3596 O   0  0  0  0  0  0  0  0  0  0  0  0
    9.3668   42.7302   33.7017 O   0  0  0  0  0  0  0  0  0  0  0  0
    9.8845   41.2324   34.2841 P   0  0  0  0  0  5  0  0  0  0  0  0
   10.3646   41.4678   35.8748 O   0  0  0  0  0  1  0  0  0  0  0  0
    9.9638   45.1115   33.2470 C   0  0  2  0  0  0  0  0  0  0  0  0
   11.0621   46.0541   33.4763 N   0  0  0  0  0  0  0  0  0  0  0  0
    8.6424   45.6681   33.8109 C   0  0  0  0  0  0  0  0  0  0  0  0
    8.6656   45.8212   35.3029 C   0  0  0  0  0  0  0  0  0  0  0  0
    9.1473   47.0065   35.8644 O   0  0  0  0  0  0  0  0  0  0  0  0
    8.2809   44.8707   36.0377 O   0  0  0  0  0  0  0  0  0  0  0  0
    9.2310   47.2135   37.2708 C   0  0  0  0  0  0  0  0  0  0  0  0
    9.7729   48.5934   37.5501 C   0  0  0  0  0  0  0  0  0  0  0  0
    9.1615   49.7680   37.0294 C   0  0  0  0  0  0  0  0  0  0  0  0
   10.9449   48.7140   38.3203 C   0  0  0  0  0  0  0  0  0  0  0  0
    7.9560   49.7212   36.2431 N   0  0  0  0  0  4  0  0  0  0  0  0
    9.7624   51.0162   37.2726 C   0  0  0  0  0  0  0  0  0  0  0  0
   11.5140   49.9647   38.5617 C   0  0  0  0  0  0  0  0  0  0  0  0
    7.7194   50.6866   35.2915 O   0  0  0  0  0  1  0  0  0  0  0  0
    7.0438   48.9151   36.5170 O   0  0  0  0  0  0  0  0  0  0  0  0
   10.9266   51.1128   38.0355 C   0  0  0  0  0  0  0  0  0  0  0  0
    8.8069   40.1899   34.2075 O   0  0  0  0  0  0  0  0  0  0  0  0
   11.2377   40.7893   33.3690 O   0  0  0  0  0  0  0  0  0  0  0  0
   10.9193   40.6893   31.9950 C   0  0  0  0  0  0  0  0  0  0  0  0
   11.5170   39.3801   31.4397 C   0  0  0  0  0  0  0  0  0  0  0  0
   12.7478   39.0861   32.0733 O   0  0  0  0  0  0  0  0  0  0  0  0
   10.6031   38.1891   31.6666 C   0  0  0  0  0  0  0  0  0  0  0  0
   12.9335   37.6796   32.0279 C   0  0  0  0  0  0  0  0  0  0  0  0
    9.6397   38.0777   30.6456 O   0  0  0  0  0  0  0  0  0  0  0  0
   11.5739   37.0154   31.7057 C   0  0  0  0  0  0  0  0  0  0  0  0
   13.4903   37.2178   33.3231 N   0  0  0  0  0  0  0  0  0  0  0  0
   11.6211   36.3376   30.4695 O   0  0  0  0  0  0  0  0  0  0  0  0
   14.4761   36.3273   33.5725 C   0  0  0  0  0  0  0  0  0  0  0  0
   13.1179   37.6317   34.5684 C   0  0  0  0  0  0  0  0  0  0  0  0
   15.2063   35.6139   32.6737 N   0  0  0  0  0  0  0  0  0  0  0  0
   14.6733   36.2277   34.9180 C   0  0  0  0  0  0  0  0  0  0  0  0
   13.8225   37.0459   35.5779 N   0  0  0  0  0  0  0  0  0  0  0  0
   16.1636   34.7594   33.1546 C   0  0  0  0  0  0  0  0  0  0  0  0
   15.6515   35.3494   35.4129 C   0  0  0  0  0  0  0  0  0  0  0  0
   16.3791   34.6311   34.5041 N   0  0  0  0  0  0  0  0  0  0  0  0
   15.9001   35.1935   36.8088 N   0  0  0  0  0  0  0  0  0  0  0  0
    9.8332   44.9916   32.1489 H   0  0  0  0  0  0  0  0  0  0  0  0
   11.9090   45.7281   32.9551 H   0  0  0  0  0  0  0  0  0  0  0  0
   11.3050   46.0959   34.4934 H   0  0  0  0  0  0  0  0  0  0  0  0
    8.4398   46.6596   33.3514 H   0  0  0  0  0  0  0  0  0  0  0  0
    7.8024   44.9987   33.5225 H   0  0  0  0  0  0  0  0  0  0  0  0
    9.8887   46.4306   37.7088 H   0  0  0  0  0  0  0  0  0  0  0  0
    8.2302   47.1016   37.7387 H   0  0  0  0  0  0  0  0  0  0  0  0
   11.4289   47.8358   38.7297 H   0  0  0  0  0  0  0  0  0  0  0  0
    9.3178   51.9232   36.8830 H   0  0  0  0  0  0  0  0  0  0  0  0
   12.4170   50.0428   39.1535 H   0  0  0  0  0  0  0  0  0  0  0  0
   11.3727   52.0814   38.2210 H   0  0  0  0  0  0  0  0  0  0  0  0
    9.8315   40.7398   31.7546 H   0  0  0  0  0  0  0  0  0  0  0  0
   11.4013   41.5437   31.4737 H   0  0  0  0  0  0  0  0  0  0  0  0
   11.6981   39.5044   30.3471 H   0  0  0  0  0  0  0  0  0  0  0  0
   10.1089   38.2630   32.6649 H   0  0  0  0  0  0  0  0  0  0  0  0
   13.6656   37.4541   31.2207 H   0  0  0  0  0  0  0  0  0  0  0  0
    8.8965   38.6899   30.8852 H   0  0  0  0  0  0  0  0  0  0  0  0
   11.2846   36.3060   32.5175 H   0  0  0  0  0  0  0  0  0  0  0  0
   10.8524   35.7094   30.4590 H   0  0  0  0  0  0  0  0  0  0  0  0
   12.3353   38.3588   34.7439 H   0  0  0  0  0  0  0  0  0  0  0  0
   16.7570   34.1788   32.4619 H   0  0  0  0  0  0  0  0  0  0  0  0
   15.3529   35.7359   37.5136 H   0  0  0  0  0  0  0  0  0  0  0  0
   16.6360   34.5317   37.1413 H   0  0  0  0  0  0  0  0  0  0  0  0
  1  2  2  0
  1  3  1  0
  3  4  1  0
  4  5  1  0
  6  1  1  0
  7  6  1  0
  6  8  1  0
  8  9  1  0
  9 10  1  0
  9 11  2  0
 10 12  1  0
 12 13  1  0
 13 14  2  0
 15 13  1  0
 14 16  1  0
 14 17  1  0
 18 15  2  0
 16 19  1  0
 16 20  2  0
 17 21  2  0
 21 18  1  0
  4 22  2  0
  4 23  1  0
 24 23  1  0
 24 25  1  0
 25 26  1  0
 25 27  1  0
 26 28  1  0
 27 29  1  0
 27 30  1  0
 30 28  1  0
 28 31  1  0
 30 32  1  0
 33 31  1  0
 34 31  1  0
 35 33  2  0
 33 36  1  0
 37 34  2  0
 38 35  1  0
 36 39  2  0
 36 37  1  0
 40 38  2  0
 40 39  1  0
 39 41  1  0
  6 42  1  6
  7 43  1  0
  7 44  1  0
  8 45  1  0
  8 46  1  0
 12 47  1  0
 12 48  1  0
 15 49  1  0
 17 50  1  0
 18 51  1  0
 21 52  1  0
 24 53  1  0
 24 54  1  0
 25 55  1  0
 27 56  1  0
 28 57  1  0
 29 58  1  0
 30 59  1  0
 32 60  1  0
 34 61  1  0
 38 62  1  0
 41 63  1  0
 41 64  1  0
M  CHG  3   5  -1  16   1  19  -1
M  END
>  <EmbedRMS>  (18) 
0.0900896756566457

$$$$

     RDKit          3D

 64 67  0  0  0  0  0  0  0  0999 V2000
   10.2871   43.7712   33.8023 C   0  0  0  0  0  0  0  0  0  0  0  0
   11.4093   43.5878   34.3593 O   0  0  0  0  0  0  0  0  0  0  0  0
    9.3678   42.7307   33.6983 O   0  0  0  0  0  0  0  0  0  0  0  0
    9.8849   41.2345   34.2847 P   0  0  0  0  0  5  0  0  0  0  0  0
   10.3649   41.4714   35.8752 O   0  0  0  0  0  1  0  0  0  0  0  0
    9.9520   45.1156   33.2556 C   0  0  2  0  0  0  0  0  0  0  0  0
   11.0708   46.0334   33.4777 N   0  0  0  0  0  0  0  0  0  0  0  0
    8.6625   45.6650   33.8992 C   0  0  0  0  0  0  0  0  0  0  0  0
    8.7963   45.8370   35.3831 C   0  0  0  0  0  0  0  0  0  0  0  0
    8.5560   44.7447   36.2248 O   0  0  0  0  0  0  0  0  0  0  0  0
    9.1596   46.9484   35.8563 O   0  0  0  0  0  0  0  0  0  0  0  0
    8.6879   44.8078   37.6444 C   0  0  0  0  0  0  0  0  0  0  0  0
    7.5839   45.6330   38.2722 C   0  0  0  0  0  0  0  0  0  0  0  0
    7.7942   46.3820   39.4610 C   0  0  0  0  0  0  0  0  0  0  0  0
    6.3063   45.6385   37.6789 C   0  0  0  0  0  0  0  0  0  0  0  0
    9.0384   46.3325   40.1796 N   0  0  0  0  0  4  0  0  0  0  0  0
    6.7534   47.1834   39.9615 C   0  0  0  0  0  0  0  0  0  0  0  0
    5.2800   46.4251   38.2036 C   0  0  0  0  0  0  0  0  0  0  0  0
    9.4788   47.4412   40.8654 O   0  0  0  0  0  1  0  0  0  0  0  0
    9.6167   45.2420   40.3654 O   0  0  0  0  0  0  0  0  0  0  0  0
    5.5068   47.2058   39.3351 C   0  0  0  0  0  0  0  0  0  0  0  0
    8.8074   40.1916   34.2092 O   0  0  0  0  0  0  0  0  0  0  0  0
   11.2367   40.7898   33.3695 O   0  0  0  0  0  0  0  0  0  0  0  0
   10.9156   40.6897   31.9963 C   0  0  0  0  0  0  0  0  0  0  0  0
   11.5270   39.3898   31.4375 C   0  0  0  0  0  0  0  0  0  0  0  0
   12.7508   39.0916   32.0839 O   0  0  0  0  0  0  0  0  0  0  0  0
   10.6122   38.1916   31.6452 C   0  0  0  0  0  0  0  0  0  0  0  0
   12.9429   37.6852   32.0295 C   0  0  0  0  0  0  0  0  0  0  0  0
    9.6070   38.0858   30.6603 O   0  0  0  0  0  0  0  0  0  0  0  0
   11.5845   37.0186   31.6879 C   0  0  0  0  0  0  0  0  0  0  0  0
   13.4899   37.2163   33.3250 N   0  0  0  0  0  0  0  0  0  0  0  0
   11.6201   36.3063   30.4693 O   0  0  0  0  0  0  0  0  0  0  0  0
   14.4759   36.3263   33.5739 C   0  0  0  0  0  0  0  0  0  0  0  0
   13.1175   37.6307   34.5699 C   0  0  0  0  0  0  0  0  0  0  0  0
   15.2065   35.6139   32.6746 N   0  0  0  0  0  0  0  0  0  0  0  0
   14.6731   36.2267   34.9191 C   0  0  0  0  0  0  0  0  0  0  0  0
   13.8224   37.0450   35.5792 N   0  0  0  0  0  0  0  0  0  0  0  0
   16.1640   34.7596   33.1551 C   0  0  0  0  0  0  0  0  0  0  0  0
   15.6517   35.3489   35.4136 C   0  0  0  0  0  0  0  0  0  0  0  0
   16.3795   34.6310   34.5046 N   0  0  0  0  0  0  0  0  0  0  0  0
   15.9006   35.1931   36.8094 N   0  0  0  0  0  0  0  0  0  0  0  0
    9.7777   45.0096   32.1612 H   0  0  0  0  0  0  0  0  0  0  0  0
   10.8085   46.9725   33.0983 H   0  0  0  0  0  0  0  0  0  0  0  0
   11.8806   45.7137   32.8967 H   0  0  0  0  0  0  0  0  0  0  0  0
    8.4040   46.6420   33.4356 H   0  0  0  0  0  0  0  0  0  0  0  0
    7.8158   44.9757   33.6900 H   0  0  0  0  0  0  0  0  0  0  0  0
    8.6341   43.7768   38.0518 H   0  0  0  0  0  0  0  0  0  0  0  0
    9.6901   45.2231   37.8818 H   0  0  0  0  0  0  0  0  0  0  0  0
    6.1041   45.0434   36.7972 H   0  0  0  0  0  0  0  0  0  0  0  0
    6.8988   47.7717   40.8586 H   0  0  0  0  0  0  0  0  0  0  0  0
    4.3072   46.4316   37.7290 H   0  0  0  0  0  0  0  0  0  0  0  0
    4.7100   47.8176   39.7380 H   0  0  0  0  0  0  0  0  0  0  0  0
   11.3827   41.5526   31.4753 H   0  0  0  0  0  0  0  0  0  0  0  0
    9.8255   40.7191   31.7590 H   0  0  0  0  0  0  0  0  0  0  0  0
   11.7318   39.5340   30.3521 H   0  0  0  0  0  0  0  0  0  0  0  0
   10.1214   38.2681   32.6413 H   0  0  0  0  0  0  0  0  0  0  0  0
   13.6882   37.4707   31.2319 H   0  0  0  0  0  0  0  0  0  0  0  0
   10.0257   38.1752   29.7656 H   0  0  0  0  0  0  0  0  0  0  0  0
   11.2796   36.3123   32.4915 H   0  0  0  0  0  0  0  0  0  0  0  0
   11.9872   36.9099   29.7714 H   0  0  0  0  0  0  0  0  0  0  0  0
   12.3365   38.3595   34.7453 H   0  0  0  0  0  0  0  0  0  0  0  0
   16.7577   34.1794   32.4622 H   0  0  0  0  0  0  0  0  0  0  0  0
   15.3532   35.7351   37.5143 H   0  0  0  0  0  0  0  0  0  0  0  0
   16.6368   34.5316   37.1418 H   0  0  0  0  0  0  0  0  0  0  0  0
  1  2  2  0
  1  3  1  0
  3  4  1  0
  4  5  1  0
  6  1  1  0
  7  6  1  0
  6  8  1  0
  8  9  1  0
  9 10  1  0
  9 11  2  0
 10 12  1  0
 12 13  1  0
 13 14  2  0
 15 13  1  0
 14 16  1  0
 14 17  1  0
 18 15  2  0
 16 19  1  0
 16 20  2  0
 17 21  2  0
 21 18  1  0
  4 22  2  0
  4 23  1  0
 24 23  1  0
 24 25  1  0
 25 26  1  0
 25 27  1  0
 26 28  1  0
 27 29  1  0
 27 30  1  0
 30 28  1  0
 28 31  1  0
 30 32  1  0
 33 31  1  0
 34 31  1  0
 35 33  2  0
 33 36  1  0
 37 34  2  0
 38 35  1  0
 36 39  2  0
 36 37  1  0
 40 38  2  0
 40 39  1  0
 39 41  1  0
  6 42  1  6
  7 43  1  0
  7 44  1  0
  8 45  1  0
  8 46  1  0
 12 47  1  0
 12 48  1  0
 15 49  1  0
 17 50  1  0
 18 51  1  0
 21 52  1  0
 24 53  1  0
 24 54  1  0
 25 55  1  0
 27 56  1  0
 28 57  1  0
 29 58  1  0
 30 59  1  0
 32 60  1  0
 34 61  1  0
 38 62  1  0
 41 63  1  0
 41 64  1  0
M  CHG  3   5  -1  16   1  19  -1
M  END
>  <EmbedRMS>  (19) 
0.08701229236161051

$$$$

     RDKit          3D

 64 67  0  0  0  0  0  0  0  0999 V2000
   10.2823   43.7751   33.8087 C   0  0  0  0  0  0  0  0  0  0  0  0
   11.4052   43.5917   34.3647 O   0  0  0  0  0  0  0  0  0  0  0  0
    9.3714   42.7283   33.6943 O   0  0  0  0  0  0  0  0  0  0  0  0
    9.8868   41.2333   34.2833 P   0  0  0  0  0  5  0  0  0  0  0  0
   10.3656   41.4709   35.8740 O   0  0  0  0  0  1  0  0  0  0  0  0
    9.9444   45.1227   33.2629 C   0  0  2  0  0  0  0  0  0  0  0  0
   11.0795   46.0242   33.4669 N   0  0  0  0  0  0  0  0  0  0  0  0
    8.6965   45.7027   33.9621 C   0  0  0  0  0  0  0  0  0  0  0  0
    7.4499   44.9495   33.6101 C   0  0  0  0  0  0  0  0  0  0  0  0
    6.9178   44.0365   34.5273 O   0  0  0  0  0  0  0  0  0  0  0  0
    6.9162   45.1169   32.4799 O   0  0  0  0  0  0  0  0  0  0  0  0
    5.7460   43.2617   34.2820 C   0  0  0  0  0  0  0  0  0  0  0  0
    4.5070   44.1178   34.3950 C   0  0  0  0  0  0  0  0  0  0  0  0
    3.9485   44.4846   35.6507 C   0  0  0  0  0  0  0  0  0  0  0  0
    3.8786   44.5480   33.2119 C   0  0  0  0  0  0  0  0  0  0  0  0
    4.5415   44.0858   36.9010 N   0  0  0  0  0  4  0  0  0  0  0  0
    2.7644   45.2435   35.6754 C   0  0  0  0  0  0  0  0  0  0  0  0
    2.7134   45.3135   33.2611 C   0  0  0  0  0  0  0  0  0  0  0  0
    3.7485   43.9152   38.0126 O   0  0  0  0  0  1  0  0  0  0  0  0
    5.7809   44.0504   37.0401 O   0  0  0  0  0  0  0  0  0  0  0  0
    2.1554   45.6574   34.4901 C   0  0  0  0  0  0  0  0  0  0  0  0
    8.8079   40.1918   34.2080 O   0  0  0  0  0  0  0  0  0  0  0  0
   11.2382   40.7879   33.3684 O   0  0  0  0  0  0  0  0  0  0  0  0
   10.9170   40.6885   31.9951 C   0  0  0  0  0  0  0  0  0  0  0  0
   11.5255   39.3870   31.4361 C   0  0  0  0  0  0  0  0  0  0  0  0
   12.7490   39.0876   32.0798 O   0  0  0  0  0  0  0  0  0  0  0  0
   10.6102   38.1909   31.6470 C   0  0  0  0  0  0  0  0  0  0  0  0
   12.9349   37.6805   32.0291 C   0  0  0  0  0  0  0  0  0  0  0  0
    9.6126   38.0874   30.6547 O   0  0  0  0  0  0  0  0  0  0  0  0
   11.5766   37.0132   31.7025 C   0  0  0  0  0  0  0  0  0  0  0  0
   13.4901   37.2164   33.3236 N   0  0  0  0  0  0  0  0  0  0  0  0
   11.6320   36.3229   30.4741 O   0  0  0  0  0  0  0  0  0  0  0  0
   14.4763   36.3265   33.5727 C   0  0  0  0  0  0  0  0  0  0  0  0
   13.1179   37.6306   34.5688 C   0  0  0  0  0  0  0  0  0  0  0  0
   15.2066   35.6135   32.6739 N   0  0  0  0  0  0  0  0  0  0  0  0
   14.6736   36.2272   34.9182 C   0  0  0  0  0  0  0  0  0  0  0  0
   13.8228   37.0453   35.5783 N   0  0  0  0  0  0  0  0  0  0  0  0
   16.1640   34.7592   33.1547 C   0  0  0  0  0  0  0  0  0  0  0  0
   15.6519   35.3491   35.4131 C   0  0  0  0  0  0  0  0  0  0  0  0
   16.3795   34.6309   34.5042 N   0  0  0  0  0  0  0  0  0  0  0  0
   15.9004   35.1933   36.8089 N   0  0  0  0  0  0  0  0  0  0  0  0
    9.7468   45.0268   32.1709 H   0  0  0  0  0  0  0  0  0  0  0  0
   11.8815   45.6822   32.8875 H   0  0  0  0  0  0  0  0  0  0  0  0
   10.8356   46.9616   33.0713 H   0  0  0  0  0  0  0  0  0  0  0  0
    8.5540   46.7619   33.6560 H   0  0  0  0  0  0  0  0  0  0  0  0
    8.8394   45.6931   35.0651 H   0  0  0  0  0  0  0  0  0  0  0  0
    5.6964   42.4359   35.0222 H   0  0  0  0  0  0  0  0  0  0  0  0
    5.8176   42.7768   33.2834 H   0  0  0  0  0  0  0  0  0  0  0  0
    4.2858   44.2815   32.2444 H   0  0  0  0  0  0  0  0  0  0  0  0
    2.3178   45.5312   36.6187 H   0  0  0  0  0  0  0  0  0  0  0  0
    2.2389   45.6357   32.3432 H   0  0  0  0  0  0  0  0  0  0  0  0
    1.2491   46.2482   34.5255 H   0  0  0  0  0  0  0  0  0  0  0  0
    9.8270   40.7206   31.7574 H   0  0  0  0  0  0  0  0  0  0  0  0
   11.3863   41.5503   31.4742 H   0  0  0  0  0  0  0  0  0  0  0  0
   11.7274   39.5285   30.3497 H   0  0  0  0  0  0  0  0  0  0  0  0
   10.1125   38.2733   32.6390 H   0  0  0  0  0  0  0  0  0  0  0  0
   13.6686   37.4585   31.2223 H   0  0  0  0  0  0  0  0  0  0  0  0
   10.0513   38.1109   29.7648 H   0  0  0  0  0  0  0  0  0  0  0  0
   11.2800   36.3128   32.5195 H   0  0  0  0  0  0  0  0  0  0  0  0
   10.8623   35.6960   30.4645 H   0  0  0  0  0  0  0  0  0  0  0  0
   12.3355   38.3580   34.7443 H   0  0  0  0  0  0  0  0  0  0  0  0
   16.7575   34.1787   32.4620 H   0  0  0  0  0  0  0  0  0  0  0  0
   16.6364   34.5315   37.1415 H   0  0  0  0  0  0  0  0  0  0  0  0
   15.3531   35.7356   37.5138 H   0  0  0  0  0  0  0  0  0  0  0  0
  1  2  2  0
  1  3  1  0
  3  4  1  0
  4  5  1  0
  6  1  1  0
  7  6  1  0
  6  8  1  0
  8  9  1  0
  9 10  1  0
  9 11  2  0
 10 12  1  0
 12 13  1  0
 13 14  2  0
 15 13  1  0
 14 16  1  0
 14 17  1  0
 18 15  2  0
 16 19  1  0
 16 20  2  0
 17 21  2  0
 21 18  1  0
  4 22  2  0
  4 23  1  0
 24 23  1  0
 24 25  1  0
 25 26  1  0
 25 27  1  0
 26 28  1  0
 27 29  1  0
 27 30  1  0
 30 28  1  0
 28 31  1  0
 30 32  1  0
 33 31  1  0
 34 31  1  0
 35 33  2  0
 33 36  1  0
 37 34  2  0
 38 35  1  0
 36 39  2  0
 36 37  1  0
 40 38  2  0
 40 39  1  0
 39 41  1  0
  6 42  1  6
  7 43  1  0
  7 44  1  0
  8 45  1  0
  8 46  1  0
 12 47  1  0
 12 48  1  0
 15 49  1  0
 17 50  1  0
 18 51  1  0
 21 52  1  0
 24 53  1  0
 24 54  1  0
 25 55  1  0
 27 56  1  0
 28 57  1  0
 29 58  1  0
 30 59  1  0
 32 60  1  0
 34 61  1  0
 38 62  1  0
 41 63  1  0
 41 64  1  0
M  CHG  3   5  -1  16   1  19  -1
M  END
>  <EmbedRMS>  (20) 
0.08868187831086735

$$$$

     RDKit          3D

 64 67  0  0  0  0  0  0  0  0999 V2000
   10.2871   43.7712   33.8022 C   0  0  0  0  0  0  0  0  0  0  0  0
   11.4094   43.5878   34.3592 O   0  0  0  0  0  0  0  0  0  0  0  0
    9.3678   42.7307   33.6983 O   0  0  0  0  0  0  0  0  0  0  0  0
    9.8849   41.2345   34.2847 P   0  0  0  0  0  5  0  0  0  0  0  0
   10.3649   41.4714   35.8752 O   0  0  0  0  0  1  0  0  0  0  0  0
    9.9520   45.1156   33.2556 C   0  0  2  0  0  0  0  0  0  0  0  0
   11.0707   46.0335   33.4778 N   0  0  0  0  0  0  0  0  0  0  0  0
    8.6624   45.6649   33.8990 C   0  0  0  0  0  0  0  0  0  0  0  0
    8.7959   45.8362   35.3831 C   0  0  0  0  0  0  0  0  0  0  0  0
    8.5555   44.7435   36.2242 O   0  0  0  0  0  0  0  0  0  0  0  0
    9.1588   46.9474   35.8569 O   0  0  0  0  0  0  0  0  0  0  0  0
    8.6868   44.8059   37.6438 C   0  0  0  0  0  0  0  0  0  0  0  0
    7.5833   45.6323   38.2698 C   0  0  0  0  0  0  0  0  0  0  0  0
    7.7994   46.3969   39.4461 C   0  0  0  0  0  0  0  0  0  0  0  0
    6.3018   45.6248   37.6852 C   0  0  0  0  0  0  0  0  0  0  0  0
    9.0504   46.3549   40.1532 N   0  0  0  0  0  4  0  0  0  0  0  0
    6.7575   47.1987   39.9460 C   0  0  0  0  0  0  0  0  0  0  0  0
    5.2754   46.4126   38.2078 C   0  0  0  0  0  0  0  0  0  0  0  0
    9.6785   45.1516   40.3786 O   0  0  0  0  0  1  0  0  0  0  0  0
    9.4720   47.3728   40.7403 O   0  0  0  0  0  0  0  0  0  0  0  0
    5.5062   47.2076   39.3285 C   0  0  0  0  0  0  0  0  0  0  0  0
    8.8074   40.1916   34.2092 O   0  0  0  0  0  0  0  0  0  0  0  0
   11.2367   40.7898   33.3695 O   0  0  0  0  0  0  0  0  0  0  0  0
   10.9156   40.6897   31.9963 C   0  0  0  0  0  0  0  0  0  0  0  0
   11.5270   39.3898   31.4375 C   0  0  0  0  0  0  0  0  0  0  0  0
   12.7508   39.0916   32.0838 O   0  0  0  0  0  0  0  0  0  0  0  0
   10.6122   38.1916   31.6452 C   0  0  0  0  0  0  0  0  0  0  0  0
   12.9429   37.6852   32.0295 C   0  0  0  0  0  0  0  0  0  0  0  0
    9.6070   38.0858   30.6603 O   0  0  0  0  0  0  0  0  0  0  0  0
   11.5845   37.0186   31.6879 C   0  0  0  0  0  0  0  0  0  0  0  0
   13.4899   37.2163   33.3250 N   0  0  0  0  0  0  0  0  0  0  0  0
   11.6201   36.3063   30.4693 O   0  0  0  0  0  0  0  0  0  0  0  0
   14.4759   36.3263   33.5739 C   0  0  0  0  0  0  0  0  0  0  0  0
   13.1175   37.6307   34.5699 C   0  0  0  0  0  0  0  0  0  0  0  0
   15.2065   35.6139   32.6746 N   0  0  0  0  0  0  0  0  0  0  0  0
   14.6731   36.2267   34.9191 C   0  0  0  0  0  0  0  0  0  0  0  0
   13.8224   37.0450   35.5792 N   0  0  0  0  0  0  0  0  0  0  0  0
   16.1640   34.7596   33.1551 C   0  0  0  0  0  0  0  0  0  0  0  0
   15.6517   35.3489   35.4136 C   0  0  0  0  0  0  0  0  0  0  0  0
   16.3795   34.6310   34.5046 N   0  0  0  0  0  0  0  0  0  0  0  0
   15.9006   35.1931   36.8094 N   0  0  0  0  0  0  0  0  0  0  0  0
    9.7778   45.0096   32.1611 H   0  0  0  0  0  0  0  0  0  0  0  0
   10.8085   46.9725   33.0985 H   0  0  0  0  0  0  0  0  0  0  0  0
   11.8806   45.7138   32.8968 H   0  0  0  0  0  0  0  0  0  0  0  0
    7.8157   44.9757   33.6893 H   0  0  0  0  0  0  0  0  0  0  0  0
    8.4042   46.6422   33.4359 H   0  0  0  0  0  0  0  0  0  0  0  0
    9.6893   45.2198   37.8823 H   0  0  0  0  0  0  0  0  0  0  0  0
    8.6312   43.7748   38.0509 H   0  0  0  0  0  0  0  0  0  0  0  0
    6.0971   45.0184   36.8117 H   0  0  0  0  0  0  0  0  0  0  0  0
    6.9069   47.7980   40.8353 H   0  0  0  0  0  0  0  0  0  0  0  0
    4.2992   46.4088   37.7401 H   0  0  0  0  0  0  0  0  0  0  0  0
    4.7092   47.8199   39.7301 H   0  0  0  0  0  0  0  0  0  0  0  0
   11.3827   41.5526   31.4753 H   0  0  0  0  0  0  0  0  0  0  0  0
    9.8255   40.7191   31.7590 H   0  0  0  0  0  0  0  0  0  0  0  0
   11.7317   39.5340   30.3521 H   0  0  0  0  0  0  0  0  0  0  0  0
   10.1214   38.2681   32.6413 H   0  0  0  0  0  0  0  0  0  0  0  0
   13.6882   37.4707   31.2319 H   0  0  0  0  0  0  0  0  0  0  0  0
   10.0257   38.1752   29.7656 H   0  0  0  0  0  0  0  0  0  0  0  0
   11.2796   36.3123   32.4915 H   0  0  0  0  0  0  0  0  0  0  0  0
   11.9872   36.9099   29.7714 H   0  0  0  0  0  0  0  0  0  0  0  0
   12.3365   38.3595   34.7453 H   0  0  0  0  0  0  0  0  0  0  0  0
   16.7577   34.1794   32.4622 H   0  0  0  0  0  0  0  0  0  0  0  0
   16.6368   34.5316   37.1418 H   0  0  0  0  0  0  0  0  0  0  0  0
   15.3532   35.7351   37.5143 H   0  0  0  0  0  0  0  0  0  0  0  0
  1  2  2  0
  1  3  1  0
  3  4  1  0
  4  5  1  0
  6  1  1  0
  7  6  1  0
  6  8  1  0
  8  9  1  0
  9 10  1  0
  9 11  2  0
 10 12  1  0
 12 13  1  0
 13 14  2  0
 15 13  1  0
 14 16  1  0
 14 17  1  0
 18 15  2  0
 16 19  1  0
 16 20  2  0
 17 21  2  0
 21 18  1  0
  4 22  2  0
  4 23  1  0
 24 23  1  0
 24 25  1  0
 25 26  1  0
 25 27  1  0
 26 28  1  0
 27 29  1  0
 27 30  1  0
 30 28  1  0
 28 31  1  0
 30 32  1  0
 33 31  1  0
 34 31  1  0
 35 33  2  0
 33 36  1  0
 37 34  2  0
 38 35  1  0
 36 39  2  0
 36 37  1  0
 40 38  2  0
 40 39  1  0
 39 41  1  0
  6 42  1  6
  7 43  1  0
  7 44  1  0
  8 45  1  0
  8 46  1  0
 12 47  1  0
 12 48  1  0
 15 49  1  0
 17 50  1  0
 18 51  1  0
 21 52  1  0
 24 53  1  0
 24 54  1  0
 25 55  1  0
 27 56  1  0
 28 57  1  0
 29 58  1  0
 30 59  1  0
 32 60  1  0
 34 61  1  0
 38 62  1  0
 41 63  1  0
 41 64  1  0
M  CHG  3   5  -1  16   1  19  -1
M  END
>  <EmbedRMS>  (21) 
0.08701268435524888

$$$$

     RDKit          3D

 64 67  0  0  0  0  0  0  0  0999 V2000
   10.2821   43.7751   33.8089 C   0  0  0  0  0  0  0  0  0  0  0  0
   11.4050   43.5916   34.3649 O   0  0  0  0  0  0  0  0  0  0  0  0
    9.3698   42.7290   33.6969 O   0  0  0  0  0  0  0  0  0  0  0  0
    9.8868   41.2334   34.2839 P   0  0  0  0  0  5  0  0  0  0  0  0
   10.3655   41.4701   35.8747 O   0  0  0  0  0  1  0  0  0  0  0  0
    9.9472   45.1206   33.2571 C   0  0  2  0  0  0  0  0  0  0  0  0
   11.0782   46.0253   33.4700 N   0  0  0  0  0  0  0  0  0  0  0  0
    8.6905   45.6989   33.9407 C   0  0  0  0  0  0  0  0  0  0  0  0
    7.4518   44.9327   33.5875 C   0  0  0  0  0  0  0  0  0  0  0  0
    7.0213   44.8964   32.2567 O   0  0  0  0  0  0  0  0  0  0  0  0
    6.8141   44.3217   34.4882 O   0  0  0  0  0  0  0  0  0  0  0  0
    5.8543   44.1952   31.8317 C   0  0  0  0  0  0  0  0  0  0  0  0
    4.6031   44.8676   32.3488 C   0  0  0  0  0  0  0  0  0  0  0  0
    4.3505   46.2520   32.1514 C   0  0  0  0  0  0  0  0  0  0  0  0
    3.6806   44.0989   33.0823 C   0  0  0  0  0  0  0  0  0  0  0  0
    5.2449   47.0872   31.3934 N   0  0  0  0  0  4  0  0  0  0  0  0
    3.2011   46.8263   32.7251 C   0  0  0  0  0  0  0  0  0  0  0  0
    2.5391   44.6860   33.6291 C   0  0  0  0  0  0  0  0  0  0  0  0
    5.8284   46.6239   30.2374 O   0  0  0  0  0  1  0  0  0  0  0  0
    5.3755   48.2932   31.6888 O   0  0  0  0  0  0  0  0  0  0  0  0
    2.3023   46.0478   33.4552 C   0  0  0  0  0  0  0  0  0  0  0  0
    8.8088   40.1910   34.2075 O   0  0  0  0  0  0  0  0  0  0  0  0
   11.2392   40.7897   33.3694 O   0  0  0  0  0  0  0  0  0  0  0  0
   10.9195   40.6904   31.9960 C   0  0  0  0  0  0  0  0  0  0  0  0
   11.5177   39.3823   31.4409 C   0  0  0  0  0  0  0  0  0  0  0  0
   12.7497   39.0891   32.0752 O   0  0  0  0  0  0  0  0  0  0  0  0
   10.6037   38.1900   31.6659 C   0  0  0  0  0  0  0  0  0  0  0  0
   12.9401   37.6832   32.0275 C   0  0  0  0  0  0  0  0  0  0  0  0
    9.6376   38.0786   30.6474 O   0  0  0  0  0  0  0  0  0  0  0  0
   11.5803   37.0203   31.6936 C   0  0  0  0  0  0  0  0  0  0  0  0
   13.4902   37.2177   33.3237 N   0  0  0  0  0  0  0  0  0  0  0  0
   11.6116   36.3192   30.4680 O   0  0  0  0  0  0  0  0  0  0  0  0
   14.4759   36.3271   33.5731 C   0  0  0  0  0  0  0  0  0  0  0  0
   13.1175   37.6317   34.5687 C   0  0  0  0  0  0  0  0  0  0  0  0
   15.2064   35.6141   32.6742 N   0  0  0  0  0  0  0  0  0  0  0  0
   14.6729   36.2274   34.9184 C   0  0  0  0  0  0  0  0  0  0  0  0
   13.8221   37.0458   35.5783 N   0  0  0  0  0  0  0  0  0  0  0  0
   16.1637   34.7596   33.1549 C   0  0  0  0  0  0  0  0  0  0  0  0
   15.6514   35.3493   35.4133 C   0  0  0  0  0  0  0  0  0  0  0  0
   16.3791   34.6312   34.5044 N   0  0  0  0  0  0  0  0  0  0  0  0
   15.9001   35.1935   36.8091 N   0  0  0  0  0  0  0  0  0  0  0  0
    9.7625   45.0212   32.1632 H   0  0  0  0  0  0  0  0  0  0  0  0
   10.8347   46.9621   33.0730 H   0  0  0  0  0  0  0  0  0  0  0  0
   11.8856   45.6857   32.8967 H   0  0  0  0  0  0  0  0  0  0  0  0
    8.8320   45.7127   35.0445 H   0  0  0  0  0  0  0  0  0  0  0  0
    8.5376   46.7491   33.6112 H   0  0  0  0  0  0  0  0  0  0  0  0
    5.8252   44.1682   30.7235 H   0  0  0  0  0  0  0  0  0  0  0  0
    5.9228   43.1379   32.1707 H   0  0  0  0  0  0  0  0  0  0  0  0
    3.8498   43.0414   33.2439 H   0  0  0  0  0  0  0  0  0  0  0  0
    2.9913   47.8802   32.5921 H   0  0  0  0  0  0  0  0  0  0  0  0
    1.8397   44.0841   34.1950 H   0  0  0  0  0  0  0  0  0  0  0  0
    1.4180   46.5015   33.8840 H   0  0  0  0  0  0  0  0  0  0  0  0
    9.8316   40.7400   31.7558 H   0  0  0  0  0  0  0  0  0  0  0  0
   11.4006   41.5453   31.4746 H   0  0  0  0  0  0  0  0  0  0  0  0
   11.6990   39.5090   30.3486 H   0  0  0  0  0  0  0  0  0  0  0  0
   10.1132   38.2591   32.6663 H   0  0  0  0  0  0  0  0  0  0  0  0
   13.6800   37.4623   31.2265 H   0  0  0  0  0  0  0  0  0  0  0  0
    8.8956   38.6915   30.8889 H   0  0  0  0  0  0  0  0  0  0  0  0
   11.2829   36.3060   32.4929 H   0  0  0  0  0  0  0  0  0  0  0  0
   11.8858   36.9588   29.7592 H   0  0  0  0  0  0  0  0  0  0  0  0
   12.3360   38.3600   34.7441 H   0  0  0  0  0  0  0  0  0  0  0  0
   16.7572   34.1792   32.4621 H   0  0  0  0  0  0  0  0  0  0  0  0
   16.6362   34.5318   37.1416 H   0  0  0  0  0  0  0  0  0  0  0  0
   15.3528   35.7357   37.5140 H   0  0  0  0  0  0  0  0  0  0  0  0
  1  2  2  0
  1  3  1  0
  3  4  1  0
  4  5  1  0
  6  1  1  0
  7  6  1  0
  6  8  1  0
  8  9  1  0
  9 10  1  0
  9 11  2  0
 10 12  1  0
 12 13  1  0
 13 14  2  0
 15 13  1  0
 14 16  1  0
 14 17  1  0
 18 15  2  0
 16 19  1  0
 16 20  2  0
 17 21  2  0
 21 18  1  0
  4 22  2  0
  4 23  1  0
 24 23  1  0
 24 25  1  0
 25 26  1  0
 25 27  1  0
 26 28  1  0
 27 29  1  0
 27 30  1  0
 30 28  1  0
 28 31  1  0
 30 32  1  0
 33 31  1  0
 34 31  1  0
 35 33  2  0
 33 36  1  0
 37 34  2  0
 38 35  1  0
 36 39  2  0
 36 37  1  0
 40 38  2  0
 40 39  1  0
 39 41  1  0
  6 42  1  6
  7 43  1  0
  7 44  1  0
  8 45  1  0
  8 46  1  0
 12 47  1  0
 12 48  1  0
 15 49  1  0
 17 50  1  0
 18 51  1  0
 21 52  1  0
 24 53  1  0
 24 54  1  0
 25 55  1  0
 27 56  1  0
 28 57  1  0
 29 58  1  0
 30 59  1  0
 32 60  1  0
 34 61  1  0
 38 62  1  0
 41 63  1  0
 41 64  1  0
M  CHG  3   5  -1  16   1  19  -1
M  END
>  <EmbedRMS>  (22) 
0.08863255182528998

$$$$

     RDKit          3D

 64 67  0  0  0  0  0  0  0  0999 V2000
   10.2873   43.7710   33.8020 C   0  0  0  0  0  0  0  0  0  0  0  0
   11.4095   43.5877   34.3593 O   0  0  0  0  0  0  0  0  0  0  0  0
    9.3683   42.7303   33.6977 O   0  0  0  0  0  0  0  0  0  0  0  0
    9.8856   41.2340   34.2838 P   0  0  0  0  0  5  0  0  0  0  0  0
   10.3650   41.4710   35.8745 O   0  0  0  0  0  1  0  0  0  0  0  0
    9.9518   45.1155   33.2559 C   0  0  2  0  0  0  0  0  0  0  0  0
   11.0707   46.0334   33.4778 N   0  0  0  0  0  0  0  0  0  0  0  0
    8.6627   45.6646   33.9005 C   0  0  0  0  0  0  0  0  0  0  0  0
    8.7972   45.8344   35.3847 C   0  0  0  0  0  0  0  0  0  0  0  0
    8.5541   44.7413   36.2239 O   0  0  0  0  0  0  0  0  0  0  0  0
    9.1643   46.9438   35.8580 O   0  0  0  0  0  0  0  0  0  0  0  0
    8.6971   44.7885   37.6423 C   0  0  0  0  0  0  0  0  0  0  0  0
    7.6154   45.6430   38.2636 C   0  0  0  0  0  0  0  0  0  0  0  0
    7.8912   46.6821   39.1920 C   0  0  0  0  0  0  0  0  0  0  0  0
    6.2766   45.3221   37.9744 C   0  0  0  0  0  0  0  0  0  0  0  0
    9.2323   47.0666   39.5287 N   0  0  0  0  0  4  0  0  0  0  0  0
    6.8227   47.3543   39.8090 C   0  0  0  0  0  0  0  0  0  0  0  0
    5.2290   46.0147   38.5830 C   0  0  0  0  0  0  0  0  0  0  0  0
    9.5456   47.3636   40.8350 O   0  0  0  0  0  1  0  0  0  0  0  0
   10.0343   47.3916   38.6297 O   0  0  0  0  0  0  0  0  0  0  0  0
    5.5016   47.0266   39.5016 C   0  0  0  0  0  0  0  0  0  0  0  0
    8.8080   40.1913   34.2081 O   0  0  0  0  0  0  0  0  0  0  0  0
   11.2382   40.7894   33.3689 O   0  0  0  0  0  0  0  0  0  0  0  0
   10.9190   40.6886   31.9951 C   0  0  0  0  0  0  0  0  0  0  0  0
   11.5181   39.3800   31.4398 C   0  0  0  0  0  0  0  0  0  0  0  0
   12.7485   39.0875   32.0749 O   0  0  0  0  0  0  0  0  0  0  0  0
   10.6054   38.1875   31.6657 C   0  0  0  0  0  0  0  0  0  0  0  0
   12.9361   37.6815   32.0288 C   0  0  0  0  0  0  0  0  0  0  0  0
    9.6423   38.0738   30.6445 O   0  0  0  0  0  0  0  0  0  0  0  0
   11.5765   37.0158   31.7046 C   0  0  0  0  0  0  0  0  0  0  0  0
   13.4908   37.2182   33.3237 N   0  0  0  0  0  0  0  0  0  0  0  0
   11.6102   36.3399   30.4680 O   0  0  0  0  0  0  0  0  0  0  0  0
   14.4762   36.3273   33.5728 C   0  0  0  0  0  0  0  0  0  0  0  0
   13.1181   37.6318   34.5689 C   0  0  0  0  0  0  0  0  0  0  0  0
   15.2063   35.6140   32.6739 N   0  0  0  0  0  0  0  0  0  0  0  0
   14.6733   36.2275   34.9182 C   0  0  0  0  0  0  0  0  0  0  0  0
   13.8226   37.0457   35.5783 N   0  0  0  0  0  0  0  0  0  0  0  0
   16.1636   34.7595   33.1546 C   0  0  0  0  0  0  0  0  0  0  0  0
   15.6515   35.3492   35.4130 C   0  0  0  0  0  0  0  0  0  0  0  0
   16.3791   34.6310   34.5041 N   0  0  0  0  0  0  0  0  0  0  0  0
   15.9002   35.1933   36.8089 N   0  0  0  0  0  0  0  0  0  0  0  0
    9.7769   45.0099   32.1616 H   0  0  0  0  0  0  0  0  0  0  0  0
   10.8082   46.9725   33.0988 H   0  0  0  0  0  0  0  0  0  0  0  0
   11.8802   45.7139   32.8962 H   0  0  0  0  0  0  0  0  0  0  0  0
    8.4044   46.6423   33.4384 H   0  0  0  0  0  0  0  0  0  0  0  0
    7.8158   44.9757   33.6905 H   0  0  0  0  0  0  0  0  0  0  0  0
    8.5901   43.7560   38.0363 H   0  0  0  0  0  0  0  0  0  0  0  0
    9.7231   45.1139   37.9001 H   0  0  0  0  0  0  0  0  0  0  0  0
    6.0433   44.5220   37.2822 H   0  0  0  0  0  0  0  0  0  0  0  0
    7.0159   48.1479   40.5199 H   0  0  0  0  0  0  0  0  0  0  0  0
    4.2036   45.7583   38.3499 H   0  0  0  0  0  0  0  0  0  0  0  0
    4.6876   47.5583   39.9773 H   0  0  0  0  0  0  0  0  0  0  0  0
   11.3996   41.5435   31.4732 H   0  0  0  0  0  0  0  0  0  0  0  0
    9.8310   40.7374   31.7552 H   0  0  0  0  0  0  0  0  0  0  0  0
   11.7002   39.5047   30.3474 H   0  0  0  0  0  0  0  0  0  0  0  0
   10.1104   38.2618   32.6637 H   0  0  0  0  0  0  0  0  0  0  0  0
   13.6696   37.4585   31.2222 H   0  0  0  0  0  0  0  0  0  0  0  0
    8.9001   38.6883   30.8814 H   0  0  0  0  0  0  0  0  0  0  0  0
   11.2690   36.3069   32.5091 H   0  0  0  0  0  0  0  0  0  0  0  0
   12.1426   35.5151   30.6153 H   0  0  0  0  0  0  0  0  0  0  0  0
   12.3359   38.3593   34.7445 H   0  0  0  0  0  0  0  0  0  0  0  0
   16.7569   34.1789   32.4618 H   0  0  0  0  0  0  0  0  0  0  0  0
   16.6362   34.5315   37.1414 H   0  0  0  0  0  0  0  0  0  0  0  0
   15.3530   35.7356   37.5138 H   0  0  0  0  0  0  0  0  0  0  0  0
  1  2  2  0
  1  3  1  0
  3  4  1  0
  4  5  1  0
  6  1  1  0
  7  6  1  0
  6  8  1  0
  8  9  1  0
  9 10  1  0
  9 11  2  0
 10 12  1  0
 12 13  1  0
 13 14  2  0
 15 13  1  0
 14 16  1  0
 14 17  1  0
 18 15  2  0
 16 19  1  0
 16 20  2  0
 17 21  2  0
 21 18  1  0
  4 22  2  0
  4 23  1  0
 24 23  1  0
 24 25  1  0
 25 26  1  0
 25 27  1  0
 26 28  1  0
 27 29  1  0
 27 30  1  0
 30 28  1  0
 28 31  1  0
 30 32  1  0
 33 31  1  0
 34 31  1  0
 35 33  2  0
 33 36  1  0
 37 34  2  0
 38 35  1  0
 36 39  2  0
 36 37  1  0
 40 38  2  0
 40 39  1  0
 39 41  1  0
  6 42  1  6
  7 43  1  0
  7 44  1  0
  8 45  1  0
  8 46  1  0
 12 47  1  0
 12 48  1  0
 15 49  1  0
 17 50  1  0
 18 51  1  0
 21 52  1  0
 24 53  1  0
 24 54  1  0
 25 55  1  0
 27 56  1  0
 28 57  1  0
 29 58  1  0
 30 59  1  0
 32 60  1  0
 34 61  1  0
 38 62  1  0
 41 63  1  0
 41 64  1  0
M  CHG  3   5  -1  16   1  19  -1
M  END
>  <EmbedRMS>  (23) 
0.08934639736674346

$$$$

     RDKit          3D

 64 67  0  0  0  0  0  0  0  0999 V2000
   10.2888   43.7684   33.8069 C   0  0  0  0  0  0  0  0  0  0  0  0
   11.4119   43.5794   34.3597 O   0  0  0  0  0  0  0  0  0  0  0  0
    9.3669   42.7305   33.7022 O   0  0  0  0  0  0  0  0  0  0  0  0
    9.8837   41.2327   34.2846 P   0  0  0  0  0  5  0  0  0  0  0  0
   10.3666   41.4662   35.8738 O   0  0  0  0  0  1  0  0  0  0  0  0
    9.9652   45.1111   33.2441 C   0  0  2  0  0  0  0  0  0  0  0  0
   11.0599   46.0558   33.4797 N   0  0  0  0  0  0  0  0  0  0  0  0
    8.6380   45.6668   33.7974 C   0  0  0  0  0  0  0  0  0  0  0  0
    8.6669   45.8903   35.2819 C   0  0  0  0  0  0  0  0  0  0  0  0
    8.7971   44.7955   36.1402 O   0  0  0  0  0  0  0  0  0  0  0  0
    8.5750   47.0608   35.7426 O   0  0  0  0  0  0  0  0  0  0  0  0
    8.7806   44.9161   37.5575 C   0  0  0  0  0  0  0  0  0  0  0  0
    9.0708   43.5723   38.1728 C   0  0  0  0  0  0  0  0  0  0  0  0
    8.0699   42.5746   38.3263 C   0  0  0  0  0  0  0  0  0  0  0  0
   10.3851   43.2981   38.5929 C   0  0  0  0  0  0  0  0  0  0  0  0
    6.7162   42.7722   37.8782 N   0  0  0  0  0  4  0  0  0  0  0  0
    8.4088   41.3568   38.9430 C   0  0  0  0  0  0  0  0  0  0  0  0
   10.7024   42.0768   39.1882 C   0  0  0  0  0  0  0  0  0  0  0  0
    5.6809   42.1328   38.5207 O   0  0  0  0  0  1  0  0  0  0  0  0
    6.4781   43.3722   36.8103 O   0  0  0  0  0  0  0  0  0  0  0  0
    9.7150   41.1105   39.3683 C   0  0  0  0  0  0  0  0  0  0  0  0
    8.8058   40.1905   34.2093 O   0  0  0  0  0  0  0  0  0  0  0  0
   11.2356   40.7889   33.3684 O   0  0  0  0  0  0  0  0  0  0  0  0
   10.9146   40.6880   31.9952 C   0  0  0  0  0  0  0  0  0  0  0  0
   11.5257   39.3871   31.4366 C   0  0  0  0  0  0  0  0  0  0  0  0
   12.7489   39.0894   32.0820 O   0  0  0  0  0  0  0  0  0  0  0  0
   10.6122   38.1892   31.6461 C   0  0  0  0  0  0  0  0  0  0  0  0
   12.9372   37.6829   32.0302 C   0  0  0  0  0  0  0  0  0  0  0  0
    9.6149   38.0837   30.6538 O   0  0  0  0  0  0  0  0  0  0  0  0
   11.5793   37.0137   31.7014 C   0  0  0  0  0  0  0  0  0  0  0  0
   13.4906   37.2171   33.3243 N   0  0  0  0  0  0  0  0  0  0  0  0
   11.6217   36.3253   30.4725 O   0  0  0  0  0  0  0  0  0  0  0  0
   14.4763   36.3267   33.5731 C   0  0  0  0  0  0  0  0  0  0  0  0
   13.1181   37.6309   34.5695 C   0  0  0  0  0  0  0  0  0  0  0  0
   15.2065   35.6138   32.6740 N   0  0  0  0  0  0  0  0  0  0  0  0
   14.6735   36.2270   34.9185 C   0  0  0  0  0  0  0  0  0  0  0  0
   13.8228   37.0451   35.5788 N   0  0  0  0  0  0  0  0  0  0  0  0
   16.1638   34.7593   33.1547 C   0  0  0  0  0  0  0  0  0  0  0  0
   15.6518   35.3490   35.4132 C   0  0  0  0  0  0  0  0  0  0  0  0
   16.3794   34.6309   34.5042 N   0  0  0  0  0  0  0  0  0  0  0  0
   15.9005   35.1931   36.8090 N   0  0  0  0  0  0  0  0  0  0  0  0
    9.8424   44.9891   32.1454 H   0  0  0  0  0  0  0  0  0  0  0  0
   11.2860   46.1070   34.5004 H   0  0  0  0  0  0  0  0  0  0  0  0
   11.9146   45.7262   32.9736 H   0  0  0  0  0  0  0  0  0  0  0  0
    7.8104   44.9638   33.5603 H   0  0  0  0  0  0  0  0  0  0  0  0
    8.4077   46.6250   33.2819 H   0  0  0  0  0  0  0  0  0  0  0  0
    7.7927   45.2938   37.8979 H   0  0  0  0  0  0  0  0  0  0  0  0
    9.5432   45.6610   37.8756 H   0  0  0  0  0  0  0  0  0  0  0  0
   11.1685   44.0352   38.4644 H   0  0  0  0  0  0  0  0  0  0  0  0
    7.6624   40.5841   39.0763 H   0  0  0  0  0  0  0  0  0  0  0  0
   11.7164   41.8799   39.5115 H   0  0  0  0  0  0  0  0  0  0  0  0
    9.9634   40.1643   39.8315 H   0  0  0  0  0  0  0  0  0  0  0  0
    9.8245   40.7178   31.7581 H   0  0  0  0  0  0  0  0  0  0  0  0
   11.3820   41.5505   31.4737 H   0  0  0  0  0  0  0  0  0  0  0  0
   11.7287   39.5290   30.3505 H   0  0  0  0  0  0  0  0  0  0  0  0
   10.1137   38.2717   32.6380 H   0  0  0  0  0  0  0  0  0  0  0  0
   13.6725   37.4639   31.2241 H   0  0  0  0  0  0  0  0  0  0  0  0
   10.0535   38.1085   29.7638 H   0  0  0  0  0  0  0  0  0  0  0  0
   11.2646   36.3135   32.5107 H   0  0  0  0  0  0  0  0  0  0  0  0
   12.1551   35.5033   30.6316 H   0  0  0  0  0  0  0  0  0  0  0  0
   12.3361   38.3588   34.7452 H   0  0  0  0  0  0  0  0  0  0  0  0
   16.7573   34.1789   32.4619 H   0  0  0  0  0  0  0  0  0  0  0  0
   15.3533   35.7354   37.5139 H   0  0  0  0  0  0  0  0  0  0  0  0
   16.6365   34.5314   37.1415 H   0  0  0  0  0  0  0  0  0  0  0  0
  1  2  2  0
  1  3  1  0
  3  4  1  0
  4  5  1  0
  6  1  1  0
  7  6  1  0
  6  8  1  0
  8  9  1  0
  9 10  1  0
  9 11  2  0
 10 12  1  0
 12 13  1  0
 13 14  2  0
 15 13  1  0
 14 16  1  0
 14 17  1  0
 18 15  2  0
 16 19  1  0
 16 20  2  0
 17 21  2  0
 21 18  1  0
  4 22  2  0
  4 23  1  0
 24 23  1  0
 24 25  1  0
 25 26  1  0
 25 27  1  0
 26 28  1  0
 27 29  1  0
 27 30  1  0
 30 28  1  0
 28 31  1  0
 30 32  1  0
 33 31  1  0
 34 31  1  0
 35 33  2  0
 33 36  1  0
 37 34  2  0
 38 35  1  0
 36 39  2  0
 36 37  1  0
 40 38  2  0
 40 39  1  0
 39 41  1  0
  6 42  1  6
  7 43  1  0
  7 44  1  0
  8 45  1  0
  8 46  1  0
 12 47  1  0
 12 48  1  0
 15 49  1  0
 17 50  1  0
 18 51  1  0
 21 52  1  0
 24 53  1  0
 24 54  1  0
 25 55  1  0
 27 56  1  0
 28 57  1  0
 29 58  1  0
 30 59  1  0
 32 60  1  0
 34 61  1  0
 38 62  1  0
 41 63  1  0
 41 64  1  0
M  CHG  3   5  -1  16   1  19  -1
M  END
>  <EmbedRMS>  (24) 
0.08863528789986568

$$$$

     RDKit          3D

 64 67  0  0  0  0  0  0  0  0999 V2000
   10.2874   43.7702   33.8002 C   0  0  0  0  0  0  0  0  0  0  0  0
   11.4100   43.5854   34.3556 O   0  0  0  0  0  0  0  0  0  0  0  0
    9.3672   42.7305   33.6981 O   0  0  0  0  0  0  0  0  0  0  0  0
    9.8852   41.2345   34.2849 P   0  0  0  0  0  5  0  0  0  0  0  0
   10.3649   41.4719   35.8754 O   0  0  0  0  0  1  0  0  0  0  0  0
    9.9527   45.1160   33.2549 C   0  0  2  0  0  0  0  0  0  0  0  0
   11.0701   46.0337   33.4817 N   0  0  0  0  0  0  0  0  0  0  0  0
    8.6594   45.6658   33.8926 C   0  0  0  0  0  0  0  0  0  0  0  0
    8.7263   45.6920   35.3915 C   0  0  0  0  0  0  0  0  0  0  0  0
    9.5574   46.6166   36.0343 O   0  0  0  0  0  0  0  0  0  0  0  0
    8.0592   44.8548   36.0591 O   0  0  0  0  0  0  0  0  0  0  0  0
    9.7897   46.5983   37.4415 C   0  0  0  0  0  0  0  0  0  0  0  0
   10.6265   45.3978   37.8237 C   0  0  0  0  0  0  0  0  0  0  0  0
   11.9220   45.1646   37.2819 C   0  0  0  0  0  0  0  0  0  0  0  0
   10.0637   44.4429   38.6914 C   0  0  0  0  0  0  0  0  0  0  0  0
   12.5619   46.0984   36.3886 N   0  0  0  0  0  4  0  0  0  0  0  0
   12.5937   43.9717   37.6128 C   0  0  0  0  0  0  0  0  0  0  0  0
   10.7547   43.2752   39.0138 C   0  0  0  0  0  0  0  0  0  0  0  0
   12.3915   47.4543   36.5390 O   0  0  0  0  0  1  0  0  0  0  0  0
   13.4128   45.6951   35.5685 O   0  0  0  0  0  0  0  0  0  0  0  0
   12.0152   43.0382   38.4726 C   0  0  0  0  0  0  0  0  0  0  0  0
    8.8081   40.1913   34.2091 O   0  0  0  0  0  0  0  0  0  0  0  0
   11.2380   40.7902   33.3705 O   0  0  0  0  0  0  0  0  0  0  0  0
   10.9190   40.6906   31.9968 C   0  0  0  0  0  0  0  0  0  0  0  0
   11.5175   39.3825   31.4415 C   0  0  0  0  0  0  0  0  0  0  0  0
   12.7495   39.0893   32.0757 O   0  0  0  0  0  0  0  0  0  0  0  0
   10.6036   38.1900   31.6660 C   0  0  0  0  0  0  0  0  0  0  0  0
   12.9401   37.6834   32.0277 C   0  0  0  0  0  0  0  0  0  0  0  0
    9.6377   38.0786   30.6475 O   0  0  0  0  0  0  0  0  0  0  0  0
   11.5804   37.0204   31.6937 C   0  0  0  0  0  0  0  0  0  0  0  0
   13.4902   37.2178   33.3238 N   0  0  0  0  0  0  0  0  0  0  0  0
   11.6118   36.3194   30.4681 O   0  0  0  0  0  0  0  0  0  0  0  0
   14.4758   36.3272   33.5731 C   0  0  0  0  0  0  0  0  0  0  0  0
   13.1176   37.6319   34.5689 C   0  0  0  0  0  0  0  0  0  0  0  0
   15.2064   35.6142   32.6742 N   0  0  0  0  0  0  0  0  0  0  0  0
   14.6729   36.2274   34.9185 C   0  0  0  0  0  0  0  0  0  0  0  0
   13.8222   37.0459   35.5784 N   0  0  0  0  0  0  0  0  0  0  0  0
   16.1637   34.7597   33.1549 C   0  0  0  0  0  0  0  0  0  0  0  0
   15.6513   35.3493   35.4133 C   0  0  0  0  0  0  0  0  0  0  0  0
   16.3791   34.6312   34.5044 N   0  0  0  0  0  0  0  0  0  0  0  0
   15.9001   35.1935   36.8091 N   0  0  0  0  0  0  0  0  0  0  0  0
    9.7842   45.0135   32.1592 H   0  0  0  0  0  0  0  0  0  0  0  0
   10.8129   46.9724   33.0986 H   0  0  0  0  0  0  0  0  0  0  0  0
   11.8842   45.7118   32.9081 H   0  0  0  0  0  0  0  0  0  0  0  0
    7.7978   45.0401   33.5704 H   0  0  0  0  0  0  0  0  0  0  0  0
    8.4656   46.6954   33.5228 H   0  0  0  0  0  0  0  0  0  0  0  0
    8.8124   46.6036   37.9728 H   0  0  0  0  0  0  0  0  0  0  0  0
   10.3023   47.5311   37.7488 H   0  0  0  0  0  0  0  0  0  0  0  0
    9.0763   44.5931   39.1103 H   0  0  0  0  0  0  0  0  0  0  0  0
   13.5779   43.7666   37.2111 H   0  0  0  0  0  0  0  0  0  0  0  0
   10.3068   42.5477   39.6785 H   0  0  0  0  0  0  0  0  0  0  0  0
   12.5468   42.1283   38.7196 H   0  0  0  0  0  0  0  0  0  0  0  0
    9.8312   40.7399   31.7565 H   0  0  0  0  0  0  0  0  0  0  0  0
   11.4001   41.5457   31.4757 H   0  0  0  0  0  0  0  0  0  0  0  0
   11.6988   39.5096   30.3492 H   0  0  0  0  0  0  0  0  0  0  0  0
   10.1130   38.2589   32.6665 H   0  0  0  0  0  0  0  0  0  0  0  0
   13.6801   37.4628   31.2266 H   0  0  0  0  0  0  0  0  0  0  0  0
    8.8954   38.6912   30.8890 H   0  0  0  0  0  0  0  0  0  0  0  0
   11.2831   36.3061   32.4930 H   0  0  0  0  0  0  0  0  0  0  0  0
   11.8859   36.9590   29.7593 H   0  0  0  0  0  0  0  0  0  0  0  0
   12.3362   38.3603   34.7442 H   0  0  0  0  0  0  0  0  0  0  0  0
   16.7572   34.1793   32.4621 H   0  0  0  0  0  0  0  0  0  0  0  0
   16.6362   34.5318   37.1416 H   0  0  0  0  0  0  0  0  0  0  0  0
   15.3529   35.7357   37.5140 H   0  0  0  0  0  0  0  0  0  0  0  0
  1  2  2  0
  1  3  1  0
  3  4  1  0
  4  5  1  0
  6  1  1  0
  7  6  1  0
  6  8  1  0
  8  9  1  0
  9 10  1  0
  9 11  2  0
 10 12  1  0
 12 13  1  0
 13 14  2  0
 15 13  1  0
 14 16  1  0
 14 17  1  0
 18 15  2  0
 16 19  1  0
 16 20  2  0
 17 21  2  0
 21 18  1  0
  4 22  2  0
  4 23  1  0
 24 23  1  0
 24 25  1  0
 25 26  1  0
 25 27  1  0
 26 28  1  0
 27 29  1  0
 27 30  1  0
 30 28  1  0
 28 31  1  0
 30 32  1  0
 33 31  1  0
 34 31  1  0
 35 33  2  0
 33 36  1  0
 37 34  2  0
 38 35  1  0
 36 39  2  0
 36 37  1  0
 40 38  2  0
 40 39  1  0
 39 41  1  0
  6 42  1  6
  7 43  1  0
  7 44  1  0
  8 45  1  0
  8 46  1  0
 12 47  1  0
 12 48  1  0
 15 49  1  0
 17 50  1  0
 18 51  1  0
 21 52  1  0
 24 53  1  0
 24 54  1  0
 25 55  1  0
 27 56  1  0
 28 57  1  0
 29 58  1  0
 30 59  1  0
 32 60  1  0
 34 61  1  0
 38 62  1  0
 41 63  1  0
 41 64  1  0
M  CHG  3   5  -1  16   1  19  -1
M  END
>  <EmbedRMS>  (25) 
0.08817817350994264

$$$$

     RDKit          3D

 64 67  0  0  0  0  0  0  0  0999 V2000
   10.2861   43.7720   33.8046 C   0  0  0  0  0  0  0  0  0  0  0  0
   11.4086   43.5884   34.3609 O   0  0  0  0  0  0  0  0  0  0  0  0
    9.3675   42.7309   33.6991 O   0  0  0  0  0  0  0  0  0  0  0  0
    9.8853   41.2341   34.2839 P   0  0  0  0  0  5  0  0  0  0  0  0
   10.3658   41.4701   35.8743 O   0  0  0  0  0  1  0  0  0  0  0  0
    9.9529   45.1149   33.2536 C   0  0  2  0  0  0  0  0  0  0  0  0
   11.0713   46.0332   33.4765 N   0  0  0  0  0  0  0  0  0  0  0  0
    8.6606   45.6657   33.8899 C   0  0  0  0  0  0  0  0  0  0  0  0
    8.7941   45.8653   35.3703 C   0  0  0  0  0  0  0  0  0  0  0  0
    9.3658   47.0462   35.8561 O   0  0  0  0  0  0  0  0  0  0  0  0
    8.4229   44.9556   36.1615 O   0  0  0  0  0  0  0  0  0  0  0  0
    9.5208   47.3251   37.2462 C   0  0  0  0  0  0  0  0  0  0  0  0
    8.1783   47.5510   37.9034 C   0  0  0  0  0  0  0  0  0  0  0  0
    7.2345   48.4848   37.3967 C   0  0  0  0  0  0  0  0  0  0  0  0
    7.8432   46.7793   39.0314 C   0  0  0  0  0  0  0  0  0  0  0  0
    7.5247   49.3172   36.2588 N   0  0  0  0  0  4  0  0  0  0  0  0
    5.9750   48.5887   38.0156 C   0  0  0  0  0  0  0  0  0  0  0  0
    6.5940   46.9099   39.6388 C   0  0  0  0  0  0  0  0  0  0  0  0
    8.7666   49.8875   36.1039 O   0  0  0  0  0  1  0  0  0  0  0  0
    6.6071   49.6606   35.4850 O   0  0  0  0  0  0  0  0  0  0  0  0
    5.6600   47.8091   39.1291 C   0  0  0  0  0  0  0  0  0  0  0  0
    8.8077   40.1914   34.2086 O   0  0  0  0  0  0  0  0  0  0  0  0
   11.2370   40.7897   33.3681 O   0  0  0  0  0  0  0  0  0  0  0  0
   10.9154   40.6881   31.9950 C   0  0  0  0  0  0  0  0  0  0  0  0
   11.5261   39.3871   31.4365 C   0  0  0  0  0  0  0  0  0  0  0  0
   12.7492   39.0893   32.0819 O   0  0  0  0  0  0  0  0  0  0  0  0
   10.6123   38.1893   31.6461 C   0  0  0  0  0  0  0  0  0  0  0  0
   12.9373   37.6827   32.0301 C   0  0  0  0  0  0  0  0  0  0  0  0
    9.6150   38.0838   30.6538 O   0  0  0  0  0  0  0  0  0  0  0  0
   11.5793   37.0136   31.7014 C   0  0  0  0  0  0  0  0  0  0  0  0
   13.4906   37.2169   33.3242 N   0  0  0  0  0  0  0  0  0  0  0  0
   11.6216   36.3252   30.4725 O   0  0  0  0  0  0  0  0  0  0  0  0
   14.4763   36.3266   33.5731 C   0  0  0  0  0  0  0  0  0  0  0  0
   13.1181   37.6308   34.5694 C   0  0  0  0  0  0  0  0  0  0  0  0
   15.2065   35.6137   32.6740 N   0  0  0  0  0  0  0  0  0  0  0  0
   14.6735   36.2270   34.9185 C   0  0  0  0  0  0  0  0  0  0  0  0
   13.8229   37.0451   35.5787 N   0  0  0  0  0  0  0  0  0  0  0  0
   16.1639   34.7593   33.1547 C   0  0  0  0  0  0  0  0  0  0  0  0
   15.6519   35.3489   35.4132 C   0  0  0  0  0  0  0  0  0  0  0  0
   16.3794   34.6308   34.5042 N   0  0  0  0  0  0  0  0  0  0  0  0
   15.9006   35.1931   36.8090 N   0  0  0  0  0  0  0  0  0  0  0  0
    9.7827   45.0055   32.1589 H   0  0  0  0  0  0  0  0  0  0  0  0
   11.8823   45.7128   32.8976 H   0  0  0  0  0  0  0  0  0  0  0  0
   10.8097   46.9718   33.0955 H   0  0  0  0  0  0  0  0  0  0  0  0
    7.8141   44.9750   33.6816 H   0  0  0  0  0  0  0  0  0  0  0  0
    8.4041   46.6394   33.4194 H   0  0  0  0  0  0  0  0  0  0  0  0
   10.0767   46.4887   37.7245 H   0  0  0  0  0  0  0  0  0  0  0  0
   10.1480   48.2310   37.3716 H   0  0  0  0  0  0  0  0  0  0  0  0
    8.5466   46.0628   39.4375 H   0  0  0  0  0  0  0  0  0  0  0  0
    5.2385   49.2897   37.6434 H   0  0  0  0  0  0  0  0  0  0  0  0
    6.3474   46.3071   40.5034 H   0  0  0  0  0  0  0  0  0  0  0  0
    4.6900   47.9054   39.5998 H   0  0  0  0  0  0  0  0  0  0  0  0
   11.3827   41.5503   31.4729 H   0  0  0  0  0  0  0  0  0  0  0  0
    9.8252   40.7180   31.7580 H   0  0  0  0  0  0  0  0  0  0  0  0
   11.7291   39.5287   30.3504 H   0  0  0  0  0  0  0  0  0  0  0  0
   10.1139   38.2718   32.6380 H   0  0  0  0  0  0  0  0  0  0  0  0
   13.6726   37.4636   31.2240 H   0  0  0  0  0  0  0  0  0  0  0  0
   10.0536   38.1085   29.7639 H   0  0  0  0  0  0  0  0  0  0  0  0
   11.2646   36.3134   32.5107 H   0  0  0  0  0  0  0  0  0  0  0  0
   12.1549   35.5032   30.6315 H   0  0  0  0  0  0  0  0  0  0  0  0
   12.3362   38.3586   34.7450 H   0  0  0  0  0  0  0  0  0  0  0  0
   16.7573   34.1788   32.4619 H   0  0  0  0  0  0  0  0  0  0  0  0
   16.6366   34.5314   37.1415 H   0  0  0  0  0  0  0  0  0  0  0  0
   15.3533   35.7353   37.5139 H   0  0  0  0  0  0  0  0  0  0  0  0
  1  2  2  0
  1  3  1  0
  3  4  1  0
  4  5  1  0
  6  1  1  0
  7  6  1  0
  6  8  1  0
  8  9  1  0
  9 10  1  0
  9 11  2  0
 10 12  1  0
 12 13  1  0
 13 14  2  0
 15 13  1  0
 14 16  1  0
 14 17  1  0
 18 15  2  0
 16 19  1  0
 16 20  2  0
 17 21  2  0
 21 18  1  0
  4 22  2  0
  4 23  1  0
 24 23  1  0
 24 25  1  0
 25 26  1  0
 25 27  1  0
 26 28  1  0
 27 29  1  0
 27 30  1  0
 30 28  1  0
 28 31  1  0
 30 32  1  0
 33 31  1  0
 34 31  1  0
 35 33  2  0
 33 36  1  0
 37 34  2  0
 38 35  1  0
 36 39  2  0
 36 37  1  0
 40 38  2  0
 40 39  1  0
 39 41  1  0
  6 42  1  6
  7 43  1  0
  7 44  1  0
  8 45  1  0
  8 46  1  0
 12 47  1  0
 12 48  1  0
 15 49  1  0
 17 50  1  0
 18 51  1  0
 21 52  1  0
 24 53  1  0
 24 54  1  0
 25 55  1  0
 27 56  1  0
 28 57  1  0
 29 58  1  0
 30 59  1  0
 32 60  1  0
 34 61  1  0
 38 62  1  0
 41 63  1  0
 41 64  1  0
M  CHG  3   5  -1  16   1  19  -1
M  END
>  <EmbedRMS>  (26) 
0.08793650591821002

$$$$

     RDKit          3D

 64 67  0  0  0  0  0  0  0  0999 V2000
   10.2859   43.7721   33.8048 C   0  0  0  0  0  0  0  0  0  0  0  0
   11.4085   43.5884   34.3610 O   0  0  0  0  0  0  0  0  0  0  0  0
    9.3673   42.7311   33.6995 O   0  0  0  0  0  0  0  0  0  0  0  0
    9.8850   41.2344   34.2844 P   0  0  0  0  0  5  0  0  0  0  0  0
   10.3655   41.4703   35.8749 O   0  0  0  0  0  1  0  0  0  0  0  0
    9.9529   45.1149   33.2536 C   0  0  2  0  0  0  0  0  0  0  0  0
   11.0714   46.0332   33.4764 N   0  0  0  0  0  0  0  0  0  0  0  0
    8.6606   45.6662   33.8894 C   0  0  0  0  0  0  0  0  0  0  0  0
    8.7946   45.8683   35.3695 C   0  0  0  0  0  0  0  0  0  0  0  0
    9.3568   47.0560   35.8538 O   0  0  0  0  0  0  0  0  0  0  0  0
    8.4252   44.9589   36.1619 O   0  0  0  0  0  0  0  0  0  0  0  0
    9.5623   47.3198   37.2425 C   0  0  0  0  0  0  0  0  0  0  0  0
    8.3557   47.9503   37.9149 C   0  0  0  0  0  0  0  0  0  0  0  0
    8.4588   48.4972   39.2256 C   0  0  0  0  0  0  0  0  0  0  0  0
    7.1185   48.0360   37.2400 C   0  0  0  0  0  0  0  0  0  0  0  0
    9.6844   48.4496   39.9806 N   0  0  0  0  0  4  0  0  0  0  0  0
    7.3399   49.1265   39.7996 C   0  0  0  0  0  0  0  0  0  0  0  0
    6.0183   48.6515   37.8375 C   0  0  0  0  0  0  0  0  0  0  0  0
    9.9704   49.4450   40.8868 O   0  0  0  0  0  1  0  0  0  0  0  0
   10.4133   47.4372   39.9548 O   0  0  0  0  0  0  0  0  0  0  0  0
    6.1292   49.1981   39.1125 C   0  0  0  0  0  0  0  0  0  0  0  0
    8.8076   40.1914   34.2087 O   0  0  0  0  0  0  0  0  0  0  0  0
   11.2369   40.7903   33.3690 O   0  0  0  0  0  0  0  0  0  0  0  0
   10.9155   40.6897   31.9960 C   0  0  0  0  0  0  0  0  0  0  0  0
   11.5270   39.3898   31.4374 C   0  0  0  0  0  0  0  0  0  0  0  0
   12.7508   39.0916   32.0838 O   0  0  0  0  0  0  0  0  0  0  0  0
   10.6122   38.1916   31.6452 C   0  0  0  0  0  0  0  0  0  0  0  0
   12.9429   37.6852   32.0295 C   0  0  0  0  0  0  0  0  0  0  0  0
    9.6070   38.0858   30.6603 O   0  0  0  0  0  0  0  0  0  0  0  0
   11.5845   37.0186   31.6879 C   0  0  0  0  0  0  0  0  0  0  0  0
   13.4899   37.2163   33.3250 N   0  0  0  0  0  0  0  0  0  0  0  0
   11.6201   36.3062   30.4693 O   0  0  0  0  0  0  0  0  0  0  0  0
   14.4759   36.3263   33.5739 C   0  0  0  0  0  0  0  0  0  0  0  0
   13.1176   37.6307   34.5699 C   0  0  0  0  0  0  0  0  0  0  0  0
   15.2065   35.6139   32.6746 N   0  0  0  0  0  0  0  0  0  0  0  0
   14.6731   36.2267   34.9191 C   0  0  0  0  0  0  0  0  0  0  0  0
   13.8224   37.0450   35.5792 N   0  0  0  0  0  0  0  0  0  0  0  0
   16.1640   34.7596   33.1551 C   0  0  0  0  0  0  0  0  0  0  0  0
   15.6517   35.3489   35.4136 C   0  0  0  0  0  0  0  0  0  0  0  0
   16.3795   34.6310   34.5046 N   0  0  0  0  0  0  0  0  0  0  0  0
   15.9006   35.1931   36.8094 N   0  0  0  0  0  0  0  0  0  0  0  0
    9.7829   45.0053   32.1588 H   0  0  0  0  0  0  0  0  0  0  0  0
   11.8826   45.7123   32.8980 H   0  0  0  0  0  0  0  0  0  0  0  0
   10.8101   46.9716   33.0947 H   0  0  0  0  0  0  0  0  0  0  0  0
    8.4033   46.6387   33.4172 H   0  0  0  0  0  0  0  0  0  0  0  0
    7.8143   44.9746   33.6827 H   0  0  0  0  0  0  0  0  0  0  0  0
    9.8436   46.3803   37.7648 H   0  0  0  0  0  0  0  0  0  0  0  0
   10.4170   48.0239   37.3241 H   0  0  0  0  0  0  0  0  0  0  0  0
    6.9915   47.6431   36.2417 H   0  0  0  0  0  0  0  0  0  0  0  0
    7.4006   49.5512   40.7936 H   0  0  0  0  0  0  0  0  0  0  0  0
    5.0774   48.7110   37.3055 H   0  0  0  0  0  0  0  0  0  0  0  0
    5.2744   49.6786   39.5709 H   0  0  0  0  0  0  0  0  0  0  0  0
   11.3825   41.5526   31.4746 H   0  0  0  0  0  0  0  0  0  0  0  0
    9.8254   40.7190   31.7587 H   0  0  0  0  0  0  0  0  0  0  0  0
   11.7318   39.5338   30.3520 H   0  0  0  0  0  0  0  0  0  0  0  0
   10.1215   38.2682   32.6413 H   0  0  0  0  0  0  0  0  0  0  0  0
   13.6882   37.4708   31.2319 H   0  0  0  0  0  0  0  0  0  0  0  0
   10.0257   38.1751   29.7656 H   0  0  0  0  0  0  0  0  0  0  0  0
   11.2796   36.3123   32.4915 H   0  0  0  0  0  0  0  0  0  0  0  0
   11.9872   36.9099   29.7714 H   0  0  0  0  0  0  0  0  0  0  0  0
   12.3365   38.3595   34.7453 H   0  0  0  0  0  0  0  0  0  0  0  0
   16.7577   34.1794   32.4622 H   0  0  0  0  0  0  0  0  0  0  0  0
   16.6368   34.5316   37.1418 H   0  0  0  0  0  0  0  0  0  0  0  0
   15.3532   35.7351   37.5143 H   0  0  0  0  0  0  0  0  0  0  0  0
  1  2  2  0
  1  3  1  0
  3  4  1  0
  4  5  1  0
  6  1  1  0
  7  6  1  0
  6  8  1  0
  8  9  1  0
  9 10  1  0
  9 11  2  0
 10 12  1  0
 12 13  1  0
 13 14  2  0
 15 13  1  0
 14 16  1  0
 14 17  1  0
 18 15  2  0
 16 19  1  0
 16 20  2  0
 17 21  2  0
 21 18  1  0
  4 22  2  0
  4 23  1  0
 24 23  1  0
 24 25  1  0
 25 26  1  0
 25 27  1  0
 26 28  1  0
 27 29  1  0
 27 30  1  0
 30 28  1  0
 28 31  1  0
 30 32  1  0
 33 31  1  0
 34 31  1  0
 35 33  2  0
 33 36  1  0
 37 34  2  0
 38 35  1  0
 36 39  2  0
 36 37  1  0
 40 38  2  0
 40 39  1  0
 39 41  1  0
  6 42  1  6
  7 43  1  0
  7 44  1  0
  8 45  1  0
  8 46  1  0
 12 47  1  0
 12 48  1  0
 15 49  1  0
 17 50  1  0
 18 51  1  0
 21 52  1  0
 24 53  1  0
 24 54  1  0
 25 55  1  0
 27 56  1  0
 28 57  1  0
 29 58  1  0
 30 59  1  0
 32 60  1  0
 34 61  1  0
 38 62  1  0
 41 63  1  0
 41 64  1  0
M  CHG  3   5  -1  16   1  19  -1
M  END
>  <EmbedRMS>  (27) 
0.08701124034590435

$$$$

     RDKit          3D

 64 67  0  0  0  0  0  0  0  0999 V2000
   10.2820   43.7753   33.8100 C   0  0  0  0  0  0  0  0  0  0  0  0
   11.4046   43.5923   34.3667 O   0  0  0  0  0  0  0  0  0  0  0  0
    9.3702   42.7287   33.6988 O   0  0  0  0  0  0  0  0  0  0  0  0
    9.8869   41.2330   34.2837 P   0  0  0  0  0  5  0  0  0  0  0  0
   10.3657   41.4688   35.8746 O   0  0  0  0  0  1  0  0  0  0  0  0
    9.9520   45.1177   33.2462 C   0  0  2  0  0  0  0  0  0  0  0  0
   11.0751   46.0279   33.4767 N   0  0  0  0  0  0  0  0  0  0  0  0
    8.6753   45.6972   33.8957 C   0  0  0  0  0  0  0  0  0  0  0  0
    7.4430   44.8999   33.5785 C   0  0  0  0  0  0  0  0  0  0  0  0
    7.2994   44.3126   32.3182 O   0  0  0  0  0  0  0  0  0  0  0  0
    6.5316   44.7914   34.4434 O   0  0  0  0  0  0  0  0  0  0  0  0
    6.1990   43.4794   31.9742 C   0  0  0  0  0  0  0  0  0  0  0  0
    6.4289   42.9011   30.6035 C   0  0  0  0  0  0  0  0  0  0  0  0
    6.0551   43.5883   29.4187 C   0  0  0  0  0  0  0  0  0  0  0  0
    7.0544   41.6452   30.5031 C   0  0  0  0  0  0  0  0  0  0  0  0
    5.4665   44.9009   29.4567 N   0  0  0  0  0  4  0  0  0  0  0  0
    6.2673   42.9686   28.1733 C   0  0  0  0  0  0  0  0  0  0  0  0
    7.2732   41.0571   29.2567 C   0  0  0  0  0  0  0  0  0  0  0  0
    5.9396   45.8549   30.3275 O   0  0  0  0  0  1  0  0  0  0  0  0
    4.6447   45.2432   28.5813 O   0  0  0  0  0  0  0  0  0  0  0  0
    6.8733   41.7139   28.0947 C   0  0  0  0  0  0  0  0  0  0  0  0
    8.8085   40.1911   34.2065 O   0  0  0  0  0  0  0  0  0  0  0  0
   11.2391   40.7901   33.3686 O   0  0  0  0  0  0  0  0  0  0  0  0
   10.9188   40.6898   31.9953 C   0  0  0  0  0  0  0  0  0  0  0  0
   11.5174   39.3819   31.4408 C   0  0  0  0  0  0  0  0  0  0  0  0
   12.7497   39.0892   32.0747 O   0  0  0  0  0  0  0  0  0  0  0  0
   10.6041   38.1898   31.6674 C   0  0  0  0  0  0  0  0  0  0  0  0
   12.9403   37.6832   32.0272 C   0  0  0  0  0  0  0  0  0  0  0  0
    9.6364   38.0796   30.6504 O   0  0  0  0  0  0  0  0  0  0  0  0
   11.5806   37.0202   31.6935 C   0  0  0  0  0  0  0  0  0  0  0  0
   13.4903   37.2178   33.3235 N   0  0  0  0  0  0  0  0  0  0  0  0
   11.6114   36.3200   30.4673 O   0  0  0  0  0  0  0  0  0  0  0  0
   14.4759   36.3272   33.5730 C   0  0  0  0  0  0  0  0  0  0  0  0
   13.1176   37.6318   34.5686 C   0  0  0  0  0  0  0  0  0  0  0  0
   15.2064   35.6141   32.6742 N   0  0  0  0  0  0  0  0  0  0  0  0
   14.6729   36.2274   34.9184 C   0  0  0  0  0  0  0  0  0  0  0  0
   13.8221   37.0458   35.5782 N   0  0  0  0  0  0  0  0  0  0  0  0
   16.1637   34.7596   33.1549 C   0  0  0  0  0  0  0  0  0  0  0  0
   15.6513   35.3493   35.4132 C   0  0  0  0  0  0  0  0  0  0  0  0
   16.3791   34.6312   34.5044 N   0  0  0  0  0  0  0  0  0  0  0  0
   15.9001   35.1935   36.8091 N   0  0  0  0  0  0  0  0  0  0  0  0
    9.7947   45.0123   32.1487 H   0  0  0  0  0  0  0  0  0  0  0  0
   11.8933   45.6926   32.9163 H   0  0  0  0  0  0  0  0  0  0  0  0
   10.8330   46.9637   33.0766 H   0  0  0  0  0  0  0  0  0  0  0  0
    8.5082   46.7308   33.5242 H   0  0  0  0  0  0  0  0  0  0  0  0
    8.8127   45.7527   34.9986 H   0  0  0  0  0  0  0  0  0  0  0  0
    5.2520   44.0593   32.0052 H   0  0  0  0  0  0  0  0  0  0  0  0
    6.1053   42.6619   32.7232 H   0  0  0  0  0  0  0  0  0  0  0  0
    7.3648   41.1139   31.3946 H   0  0  0  0  0  0  0  0  0  0  0  0
    5.9831   43.4703   27.2568 H   0  0  0  0  0  0  0  0  0  0  0  0
    7.7496   40.0880   29.1908 H   0  0  0  0  0  0  0  0  0  0  0  0
    7.0409   41.2538   27.1294 H   0  0  0  0  0  0  0  0  0  0  0  0
    9.8313   40.7366   31.7557 H   0  0  0  0  0  0  0  0  0  0  0  0
   11.3979   41.5452   31.4728 H   0  0  0  0  0  0  0  0  0  0  0  0
   11.6978   39.5081   30.3483 H   0  0  0  0  0  0  0  0  0  0  0  0
   10.1171   38.2588   32.6699 H   0  0  0  0  0  0  0  0  0  0  0  0
   13.6802   37.4622   31.2262 H   0  0  0  0  0  0  0  0  0  0  0  0
    8.8741   38.6546   30.9196 H   0  0  0  0  0  0  0  0  0  0  0  0
   11.2838   36.3051   32.4923 H   0  0  0  0  0  0  0  0  0  0  0  0
   11.8845   36.9603   29.7588 H   0  0  0  0  0  0  0  0  0  0  0  0
   12.3360   38.3601   34.7439 H   0  0  0  0  0  0  0  0  0  0  0  0
   16.7573   34.1792   32.4621 H   0  0  0  0  0  0  0  0  0  0  0  0
   15.3527   35.7357   37.5139 H   0  0  0  0  0  0  0  0  0  0  0  0
   16.6361   34.5318   37.1416 H   0  0  0  0  0  0  0  0  0  0  0  0
  1  2  2  0
  1  3  1  0
  3  4  1  0
  4  5  1  0
  6  1  1  0
  7  6  1  0
  6  8  1  0
  8  9  1  0
  9 10  1  0
  9 11  2  0
 10 12  1  0
 12 13  1  0
 13 14  2  0
 15 13  1  0
 14 16  1  0
 14 17  1  0
 18 15  2  0
 16 19  1  0
 16 20  2  0
 17 21  2  0
 21 18  1  0
  4 22  2  0
  4 23  1  0
 24 23  1  0
 24 25  1  0
 25 26  1  0
 25 27  1  0
 26 28  1  0
 27 29  1  0
 27 30  1  0
 30 28  1  0
 28 31  1  0
 30 32  1  0
 33 31  1  0
 34 31  1  0
 35 33  2  0
 33 36  1  0
 37 34  2  0
 38 35  1  0
 36 39  2  0
 36 37  1  0
 40 38  2  0
 40 39  1  0
 39 41  1  0
  6 42  1  6
  7 43  1  0
  7 44  1  0
  8 45  1  0
  8 46  1  0
 12 47  1  0
 12 48  1  0
 15 49  1  0
 17 50  1  0
 18 51  1  0
 21 52  1  0
 24 53  1  0
 24 54  1  0
 25 55  1  0
 27 56  1  0
 28 57  1  0
 29 58  1  0
 30 59  1  0
 32 60  1  0
 34 61  1  0
 38 62  1  0
 41 63  1  0
 41 64  1  0
M  CHG  3   5  -1  16   1  19  -1
M  END
>  <EmbedRMS>  (28) 
0.08855999583041936

$$$$

     RDKit          3D

 64 67  0  0  0  0  0  0  0  0999 V2000
   10.2862   43.7709   33.8104 C   0  0  0  0  0  0  0  0  0  0  0  0
   11.4101   43.5817   34.3618 O   0  0  0  0  0  0  0  0  0  0  0  0
    9.3667   42.7309   33.7025 O   0  0  0  0  0  0  0  0  0  0  0  0
    9.8846   41.2330   34.2846 P   0  0  0  0  0  5  0  0  0  0  0  0
   10.3648   41.4676   35.8753 O   0  0  0  0  0  1  0  0  0  0  0  0
    9.9617   45.1113   33.2460 C   0  0  2  0  0  0  0  0  0  0  0  0
   11.0650   46.0484   33.4750 N   0  0  0  0  0  0  0  0  0  0  0  0
    8.6625   45.6560   33.8629 C   0  0  0  0  0  0  0  0  0  0  0  0
    8.3033   46.9807   33.2657 C   0  0  0  0  0  0  0  0  0  0  0  0
    7.8988   47.0424   31.9279 O   0  0  0  0  0  0  0  0  0  0  0  0
    8.4044   48.0303   33.9581 O   0  0  0  0  0  0  0  0  0  0  0  0
    7.7160   48.2690   31.2241 C   0  0  0  0  0  0  0  0  0  0  0  0
    9.0400   48.9731   31.0268 C   0  0  0  0  0  0  0  0  0  0  0  0
   10.1620   48.3305   30.4327 C   0  0  0  0  0  0  0  0  0  0  0  0
    9.1741   50.2930   31.4956 C   0  0  0  0  0  0  0  0  0  0  0  0
   10.0927   46.9885   29.9151 N   0  0  0  0  0  4  0  0  0  0  0  0
   11.3859   49.0199   30.3629 C   0  0  0  0  0  0  0  0  0  0  0  0
   10.3939   50.9632   31.4001 C   0  0  0  0  0  0  0  0  0  0  0  0
   11.2215   46.2016   29.8937 O   0  0  0  0  0  1  0  0  0  0  0  0
    9.0668   46.5784   29.3354 O   0  0  0  0  0  0  0  0  0  0  0  0
   11.4988   50.3261   30.8400 C   0  0  0  0  0  0  0  0  0  0  0  0
    8.8073   40.1902   34.2075 O   0  0  0  0  0  0  0  0  0  0  0  0
   11.2376   40.7905   33.3696 O   0  0  0  0  0  0  0  0  0  0  0  0
   10.9186   40.6906   31.9960 C   0  0  0  0  0  0  0  0  0  0  0  0
   11.5174   39.3824   31.4411 C   0  0  0  0  0  0  0  0  0  0  0  0
   12.7494   39.0893   32.0756 O   0  0  0  0  0  0  0  0  0  0  0  0
   10.6036   38.1900   31.6659 C   0  0  0  0  0  0  0  0  0  0  0  0
   12.9401   37.6834   32.0276 C   0  0  0  0  0  0  0  0  0  0  0  0
    9.6376   38.0785   30.6474 O   0  0  0  0  0  0  0  0  0  0  0  0
   11.5803   37.0204   31.6937 C   0  0  0  0  0  0  0  0  0  0  0  0
   13.4902   37.2178   33.3237 N   0  0  0  0  0  0  0  0  0  0  0  0
   11.6118   36.3193   30.4680 O   0  0  0  0  0  0  0  0  0  0  0  0
   14.4759   36.3272   33.5731 C   0  0  0  0  0  0  0  0  0  0  0  0
   13.1176   37.6318   34.5688 C   0  0  0  0  0  0  0  0  0  0  0  0
   15.2064   35.6142   32.6742 N   0  0  0  0  0  0  0  0  0  0  0  0
   14.6729   36.2274   34.9184 C   0  0  0  0  0  0  0  0  0  0  0  0
   13.8221   37.0458   35.5783 N   0  0  0  0  0  0  0  0  0  0  0  0
   16.1637   34.7597   33.1549 C   0  0  0  0  0  0  0  0  0  0  0  0
   15.6514   35.3493   35.4132 C   0  0  0  0  0  0  0  0  0  0  0  0
   16.3791   34.6312   34.5043 N   0  0  0  0  0  0  0  0  0  0  0  0
   15.9001   35.1935   36.8091 N   0  0  0  0  0  0  0  0  0  0  0  0
    9.8153   44.9911   32.1499 H   0  0  0  0  0  0  0  0  0  0  0  0
   11.9218   45.7054   32.9816 H   0  0  0  0  0  0  0  0  0  0  0  0
   11.2742   46.1182   34.4984 H   0  0  0  0  0  0  0  0  0  0  0  0
    7.8268   44.9495   33.6676 H   0  0  0  0  0  0  0  0  0  0  0  0
    8.7760   45.7554   34.9655 H   0  0  0  0  0  0  0  0  0  0  0  0
    6.9912   48.9034   31.7803 H   0  0  0  0  0  0  0  0  0  0  0  0
    7.2585   48.0610   30.2353 H   0  0  0  0  0  0  0  0  0  0  0  0
    8.3347   50.8041   31.9509 H   0  0  0  0  0  0  0  0  0  0  0  0
   12.2551   48.5498   29.9210 H   0  0  0  0  0  0  0  0  0  0  0  0
   10.4844   51.9768   31.7689 H   0  0  0  0  0  0  0  0  0  0  0  0
   12.4453   50.8468   30.7719 H   0  0  0  0  0  0  0  0  0  0  0  0
    9.8308   40.7399   31.7557 H   0  0  0  0  0  0  0  0  0  0  0  0
   11.3997   41.5456   31.4746 H   0  0  0  0  0  0  0  0  0  0  0  0
   11.6989   39.5092   30.3489 H   0  0  0  0  0  0  0  0  0  0  0  0
   10.1130   38.2589   32.6663 H   0  0  0  0  0  0  0  0  0  0  0  0
   13.6800   37.4628   31.2265 H   0  0  0  0  0  0  0  0  0  0  0  0
    8.8953   38.6910   30.8890 H   0  0  0  0  0  0  0  0  0  0  0  0
   11.2830   36.3060   32.4929 H   0  0  0  0  0  0  0  0  0  0  0  0
   11.8859   36.9589   29.7593 H   0  0  0  0  0  0  0  0  0  0  0  0
   12.3360   38.3600   34.7441 H   0  0  0  0  0  0  0  0  0  0  0  0
   16.7572   34.1793   32.4621 H   0  0  0  0  0  0  0  0  0  0  0  0
   16.6362   34.5318   37.1416 H   0  0  0  0  0  0  0  0  0  0  0  0
   15.3528   35.7357   37.5140 H   0  0  0  0  0  0  0  0  0  0  0  0
  1  2  2  0
  1  3  1  0
  3  4  1  0
  4  5  1  0
  6  1  1  0
  7  6  1  0
  6  8  1  0
  8  9  1  0
  9 10  1  0
  9 11  2  0
 10 12  1  0
 12 13  1  0
 13 14  2  0
 15 13  1  0
 14 16  1  0
 14 17  1  0
 18 15  2  0
 16 19  1  0
 16 20  2  0
 17 21  2  0
 21 18  1  0
  4 22  2  0
  4 23  1  0
 24 23  1  0
 24 25  1  0
 25 26  1  0
 25 27  1  0
 26 28  1  0
 27 29  1  0
 27 30  1  0
 30 28  1  0
 28 31  1  0
 30 32  1  0
 33 31  1  0
 34 31  1  0
 35 33  2  0
 33 36  1  0
 37 34  2  0
 38 35  1  0
 36 39  2  0
 36 37  1  0
 40 38  2  0
 40 39  1  0
 39 41  1  0
  6 42  1  6
  7 43  1  0
  7 44  1  0
  8 45  1  0
  8 46  1  0
 12 47  1  0
 12 48  1  0
 15 49  1  0
 17 50  1  0
 18 51  1  0
 21 52  1  0
 24 53  1  0
 24 54  1  0
 25 55  1  0
 27 56  1  0
 28 57  1  0
 29 58  1  0
 30 59  1  0
 32 60  1  0
 34 61  1  0
 38 62  1  0
 41 63  1  0
 41 64  1  0
M  CHG  3   5  -1  16   1  19  -1
M  END
>  <EmbedRMS>  (29) 
0.08879776148866497

$$$$

     RDKit          3D

 64 67  0  0  0  0  0  0  0  0999 V2000
   10.2870   43.7706   33.8009 C   0  0  0  0  0  0  0  0  0  0  0  0
   11.4095   43.5865   34.3569 O   0  0  0  0  0  0  0  0  0  0  0  0
    9.3673   42.7306   33.6982 O   0  0  0  0  0  0  0  0  0  0  0  0
    9.8853   41.2344   34.2847 P   0  0  0  0  0  5  0  0  0  0  0  0
   10.3648   41.4711   35.8752 O   0  0  0  0  0  1  0  0  0  0  0  0
    9.9513   45.1165   33.2564 C   0  0  2  0  0  0  0  0  0  0  0  0
   11.0718   46.0323   33.4792 N   0  0  0  0  0  0  0  0  0  0  0  0
    8.6626   45.6669   33.9036 C   0  0  0  0  0  0  0  0  0  0  0  0
    8.7755   45.7491   35.3966 C   0  0  0  0  0  0  0  0  0  0  0  0
    9.5433   46.7651   35.9748 O   0  0  0  0  0  0  0  0  0  0  0  0
    8.2277   44.8683   36.1144 O   0  0  0  0  0  0  0  0  0  0  0  0
    9.9858   46.7248   37.3290 C   0  0  0  0  0  0  0  0  0  0  0  0
   11.0677   45.6797   37.4792 C   0  0  0  0  0  0  0  0  0  0  0  0
   10.8595   44.4444   38.1470 C   0  0  0  0  0  0  0  0  0  0  0  0
   12.2877   45.9012   36.8156 C   0  0  0  0  0  0  0  0  0  0  0  0
    9.6519   44.1665   38.8694 N   0  0  0  0  0  4  0  0  0  0  0  0
   11.8631   43.4622   38.1059 C   0  0  0  0  0  0  0  0  0  0  0  0
   13.2808   44.9208   36.8019 C   0  0  0  0  0  0  0  0  0  0  0  0
    9.0837   42.9162   38.7882 O   0  0  0  0  0  1  0  0  0  0  0  0
    9.2699   44.9444   39.7675 O   0  0  0  0  0  0  0  0  0  0  0  0
   13.0660   43.7005   37.4398 C   0  0  0  0  0  0  0  0  0  0  0  0
    8.8081   40.1913   34.2087 O   0  0  0  0  0  0  0  0  0  0  0  0
   11.2381   40.7903   33.3703 O   0  0  0  0  0  0  0  0  0  0  0  0
   10.9191   40.6906   31.9967 C   0  0  0  0  0  0  0  0  0  0  0  0
   11.5176   39.3825   31.4414 C   0  0  0  0  0  0  0  0  0  0  0  0
   12.7496   39.0893   32.0756 O   0  0  0  0  0  0  0  0  0  0  0  0
   10.6036   38.1900   31.6660 C   0  0  0  0  0  0  0  0  0  0  0  0
   12.9401   37.6834   32.0277 C   0  0  0  0  0  0  0  0  0  0  0  0
    9.6377   38.0787   30.6475 O   0  0  0  0  0  0  0  0  0  0  0  0
   11.5804   37.0204   31.6937 C   0  0  0  0  0  0  0  0  0  0  0  0
   13.4902   37.2178   33.3238 N   0  0  0  0  0  0  0  0  0  0  0  0
   11.6118   36.3194   30.4681 O   0  0  0  0  0  0  0  0  0  0  0  0
   14.4758   36.3272   33.5731 C   0  0  0  0  0  0  0  0  0  0  0  0
   13.1176   37.6319   34.5688 C   0  0  0  0  0  0  0  0  0  0  0  0
   15.2064   35.6142   32.6742 N   0  0  0  0  0  0  0  0  0  0  0  0
   14.6729   36.2275   34.9185 C   0  0  0  0  0  0  0  0  0  0  0  0
   13.8222   37.0459   35.5784 N   0  0  0  0  0  0  0  0  0  0  0  0
   16.1637   34.7597   33.1549 C   0  0  0  0  0  0  0  0  0  0  0  0
   15.6513   35.3493   35.4133 C   0  0  0  0  0  0  0  0  0  0  0  0
   16.3791   34.6312   34.5044 N   0  0  0  0  0  0  0  0  0  0  0  0
   15.9001   35.1935   36.8091 N   0  0  0  0  0  0  0  0  0  0  0  0
    9.7762   45.0141   32.1618 H   0  0  0  0  0  0  0  0  0  0  0  0
   11.8835   45.7091   32.9028 H   0  0  0  0  0  0  0  0  0  0  0  0
   10.8140   46.9713   33.0971 H   0  0  0  0  0  0  0  0  0  0  0  0
    8.4449   46.6797   33.5020 H   0  0  0  0  0  0  0  0  0  0  0  0
    7.8024   45.0172   33.6293 H   0  0  0  0  0  0  0  0  0  0  0  0
    9.1172   46.5634   37.9955 H   0  0  0  0  0  0  0  0  0  0  0  0
   10.4087   47.7177   37.5913 H   0  0  0  0  0  0  0  0  0  0  0  0
   12.4598   46.8298   36.2848 H   0  0  0  0  0  0  0  0  0  0  0  0
   11.7175   42.5129   38.6059 H   0  0  0  0  0  0  0  0  0  0  0  0
   14.2123   45.1020   36.2814 H   0  0  0  0  0  0  0  0  0  0  0  0
   13.8335   42.9376   37.4198 H   0  0  0  0  0  0  0  0  0  0  0  0
   11.4003   41.5456   31.4755 H   0  0  0  0  0  0  0  0  0  0  0  0
    9.8312   40.7400   31.7564 H   0  0  0  0  0  0  0  0  0  0  0  0
   11.6989   39.5095   30.3492 H   0  0  0  0  0  0  0  0  0  0  0  0
   10.1130   38.2589   32.6665 H   0  0  0  0  0  0  0  0  0  0  0  0
   13.6801   37.4628   31.2266 H   0  0  0  0  0  0  0  0  0  0  0  0
    8.8955   38.6912   30.8890 H   0  0  0  0  0  0  0  0  0  0  0  0
   11.2830   36.3061   32.4930 H   0  0  0  0  0  0  0  0  0  0  0  0
   11.8859   36.9590   29.7593 H   0  0  0  0  0  0  0  0  0  0  0  0
   12.3362   38.3603   34.7442 H   0  0  0  0  0  0  0  0  0  0  0  0
   16.7572   34.1793   32.4621 H   0  0  0  0  0  0  0  0  0  0  0  0
   15.3528   35.7357   37.5140 H   0  0  0  0  0  0  0  0  0  0  0  0
   16.6362   34.5318   37.1416 H   0  0  0  0  0  0  0  0  0  0  0  0
  1  2  2  0
  1  3  1  0
  3  4  1  0
  4  5  1  0
  6  1  1  0
  7  6  1  0
  6  8  1  0
  8  9  1  0
  9 10  1  0
  9 11  2  0
 10 12  1  0
 12 13  1  0
 13 14  2  0
 15 13  1  0
 14 16  1  0
 14 17  1  0
 18 15  2  0
 16 19  1  0
 16 20  2  0
 17 21  2  0
 21 18  1  0
  4 22  2  0
  4 23  1  0
 24 23  1  0
 24 25  1  0
 25 26  1  0
 25 27  1  0
 26 28  1  0
 27 29  1  0
 27 30  1  0
 30 28  1  0
 28 31  1  0
 30 32  1  0
 33 31  1  0
 34 31  1  0
 35 33  2  0
 33 36  1  0
 37 34  2  0
 38 35  1  0
 36 39  2  0
 36 37  1  0
 40 38  2  0
 40 39  1  0
 39 41  1  0
  6 42  1  6
  7 43  1  0
  7 44  1  0
  8 45  1  0
  8 46  1  0
 12 47  1  0
 12 48  1  0
 15 49  1  0
 17 50  1  0
 18 51  1  0
 21 52  1  0
 24 53  1  0
 24 54  1  0
 25 55  1  0
 27 56  1  0
 28 57  1  0
 29 58  1  0
 30 59  1  0
 32 60  1  0
 34 61  1  0
 38 62  1  0
 41 63  1  0
 41 64  1  0
M  CHG  3   5  -1  16   1  19  -1
M  END
>  <EmbedRMS>  (30) 
0.08823729085421564

$$$$

     RDKit          3D

 64 67  0  0  0  0  0  0  0  0999 V2000
   10.2850   43.7727   33.8068 C   0  0  0  0  0  0  0  0  0  0  0  0
   11.4114   43.5867   34.3538 O   0  0  0  0  0  0  0  0  0  0  0  0
    9.3657   42.7320   33.7036 O   0  0  0  0  0  0  0  0  0  0  0  0
    9.8846   41.2345   34.2855 P   0  0  0  0  0  5  0  0  0  0  0  0
   10.3675   41.4678   35.8745 O   0  0  0  0  0  1  0  0  0  0  0  0
    9.9625   45.1084   33.2357 C   0  0  2  0  0  0  0  0  0  0  0  0
   11.0637   46.0394   33.4919 N   0  0  0  0  0  0  0  0  0  0  0  0
    8.6103   45.6545   33.7485 C   0  0  0  0  0  0  0  0  0  0  0  0
    8.5816   45.8803   35.2326 C   0  0  0  0  0  0  0  0  0  0  0  0
    8.6647   44.7873   36.0993 O   0  0  0  0  0  0  0  0  0  0  0  0
    8.4805   47.0531   35.6860 O   0  0  0  0  0  0  0  0  0  0  0  0
    8.5453   44.9107   37.5119 C   0  0  0  0  0  0  0  0  0  0  0  0
    8.8269   43.5769   38.1505 C   0  0  0  0  0  0  0  0  0  0  0  0
   10.1280   43.1966   38.5732 C   0  0  0  0  0  0  0  0  0  0  0  0
    7.7596   42.6761   38.3131 C   0  0  0  0  0  0  0  0  0  0  0  0
   11.2715   44.0446   38.3648 N   0  0  0  0  0  4  0  0  0  0  0  0
   10.3054   41.9508   39.2029 C   0  0  0  0  0  0  0  0  0  0  0  0
    7.9609   41.4366   38.9217 C   0  0  0  0  0  0  0  0  0  0  0  0
   11.4307   44.7234   37.1790 O   0  0  0  0  0  1  0  0  0  0  0  0
   12.2182   44.0291   39.1784 O   0  0  0  0  0  0  0  0  0  0  0  0
    9.2296   41.0782   39.3733 C   0  0  0  0  0  0  0  0  0  0  0  0
    8.8072   40.1915   34.2100 O   0  0  0  0  0  0  0  0  0  0  0  0
   11.2361   40.7911   33.3690 O   0  0  0  0  0  0  0  0  0  0  0  0
   10.9145   40.6899   31.9962 C   0  0  0  0  0  0  0  0  0  0  0  0
   11.5266   39.3900   31.4377 C   0  0  0  0  0  0  0  0  0  0  0  0
   12.7504   39.0919   32.0842 O   0  0  0  0  0  0  0  0  0  0  0  0
   10.6120   38.1916   31.6453 C   0  0  0  0  0  0  0  0  0  0  0  0
   12.9428   37.6855   32.0296 C   0  0  0  0  0  0  0  0  0  0  0  0
    9.6069   38.0858   30.6603 O   0  0  0  0  0  0  0  0  0  0  0  0
   11.5845   37.0187   31.6880 C   0  0  0  0  0  0  0  0  0  0  0  0
   13.4898   37.2165   33.3251 N   0  0  0  0  0  0  0  0  0  0  0  0
   11.6202   36.3064   30.4693 O   0  0  0  0  0  0  0  0  0  0  0  0
   14.4758   36.3264   33.5739 C   0  0  0  0  0  0  0  0  0  0  0  0
   13.1175   37.6309   34.5700 C   0  0  0  0  0  0  0  0  0  0  0  0
   15.2064   35.6140   32.6746 N   0  0  0  0  0  0  0  0  0  0  0  0
   14.6731   36.2268   34.9191 C   0  0  0  0  0  0  0  0  0  0  0  0
   13.8224   37.0451   35.5793 N   0  0  0  0  0  0  0  0  0  0  0  0
   16.1639   34.7596   33.1551 C   0  0  0  0  0  0  0  0  0  0  0  0
   15.6517   35.3489   35.4136 C   0  0  0  0  0  0  0  0  0  0  0  0
   16.3794   34.6310   34.5046 N   0  0  0  0  0  0  0  0  0  0  0  0
   15.9006   35.1931   36.8094 N   0  0  0  0  0  0  0  0  0  0  0  0
    9.8750   44.9745   32.1351 H   0  0  0  0  0  0  0  0  0  0  0  0
   10.8584   46.9417   33.0043 H   0  0  0  0  0  0  0  0  0  0  0  0
   11.1273   46.2470   34.5153 H   0  0  0  0  0  0  0  0  0  0  0  0
    7.7986   44.9430   33.4841 H   0  0  0  0  0  0  0  0  0  0  0  0
    8.3840   46.6084   33.2235 H   0  0  0  0  0  0  0  0  0  0  0  0
    7.5157   45.2470   37.7640 H   0  0  0  0  0  0  0  0  0  0  0  0
    9.2392   45.6874   37.8978 H   0  0  0  0  0  0  0  0  0  0  0  0
    6.7646   42.9384   37.9746 H   0  0  0  0  0  0  0  0  0  0  0  0
   11.2873   41.6423   39.5391 H   0  0  0  0  0  0  0  0  0  0  0  0
    7.1301   40.7543   39.0468 H   0  0  0  0  0  0  0  0  0  0  0  0
    9.3826   40.1173   39.8475 H   0  0  0  0  0  0  0  0  0  0  0  0
    9.8243   40.7187   31.7594 H   0  0  0  0  0  0  0  0  0  0  0  0
   11.3809   41.5528   31.4745 H   0  0  0  0  0  0  0  0  0  0  0  0
   11.7315   39.5341   30.3523 H   0  0  0  0  0  0  0  0  0  0  0  0
   10.1212   38.2681   32.6413 H   0  0  0  0  0  0  0  0  0  0  0  0
   13.6881   37.4712   31.2320 H   0  0  0  0  0  0  0  0  0  0  0  0
   10.0256   38.1751   29.7656 H   0  0  0  0  0  0  0  0  0  0  0  0
   11.2796   36.3124   32.4916 H   0  0  0  0  0  0  0  0  0  0  0  0
   11.9872   36.9101   29.7715 H   0  0  0  0  0  0  0  0  0  0  0  0
   12.3365   38.3597   34.7455 H   0  0  0  0  0  0  0  0  0  0  0  0
   16.7576   34.1795   32.4622 H   0  0  0  0  0  0  0  0  0  0  0  0
   16.6368   34.5316   37.1418 H   0  0  0  0  0  0  0  0  0  0  0  0
   15.3532   35.7352   37.5144 H   0  0  0  0  0  0  0  0  0  0  0  0
  1  2  2  0
  1  3  1  0
  3  4  1  0
  4  5  1  0
  6  1  1  0
  7  6  1  0
  6  8  1  0
  8  9  1  0
  9 10  1  0
  9 11  2  0
 10 12  1  0
 12 13  1  0
 13 14  2  0
 15 13  1  0
 14 16  1  0
 14 17  1  0
 18 15  2  0
 16 19  1  0
 16 20  2  0
 17 21  2  0
 21 18  1  0
  4 22  2  0
  4 23  1  0
 24 23  1  0
 24 25  1  0
 25 26  1  0
 25 27  1  0
 26 28  1  0
 27 29  1  0
 27 30  1  0
 30 28  1  0
 28 31  1  0
 30 32  1  0
 33 31  1  0
 34 31  1  0
 35 33  2  0
 33 36  1  0
 37 34  2  0
 38 35  1  0
 36 39  2  0
 36 37  1  0
 40 38  2  0
 40 39  1  0
 39 41  1  0
  6 42  1  6
  7 43  1  0
  7 44  1  0
  8 45  1  0
  8 46  1  0
 12 47  1  0
 12 48  1  0
 15 49  1  0
 17 50  1  0
 18 51  1  0
 21 52  1  0
 24 53  1  0
 24 54  1  0
 25 55  1  0
 27 56  1  0
 28 57  1  0
 29 58  1  0
 30 59  1  0
 32 60  1  0
 34 61  1  0
 38 62  1  0
 41 63  1  0
 41 64  1  0
M  CHG  3   5  -1  16   1  19  -1
M  END
>  <EmbedRMS>  (31) 
0.08688038659757993

$$$$

     RDKit          3D

 64 67  0  0  0  0  0  0  0  0999 V2000
   10.2803   43.7762   33.8100 C   0  0  0  0  0  0  0  0  0  0  0  0
   11.4064   43.5918   34.3592 O   0  0  0  0  0  0  0  0  0  0  0  0
    9.3682   42.7303   33.6996 O   0  0  0  0  0  0  0  0  0  0  0  0
    9.8867   41.2341   34.2844 P   0  0  0  0  0  5  0  0  0  0  0  0
   10.3661   41.4700   35.8750 O   0  0  0  0  0  1  0  0  0  0  0  0
    9.9513   45.1162   33.2475 C   0  0  2  0  0  0  0  0  0  0  0  0
   11.0759   46.0243   33.4797 N   0  0  0  0  0  0  0  0  0  0  0  0
    8.6560   45.6924   33.8662 C   0  0  0  0  0  0  0  0  0  0  0  0
    7.4152   45.0519   33.2956 C   0  0  0  0  0  0  0  0  0  0  0  0
    6.8580   45.4397   32.0673 O   0  0  0  0  0  0  0  0  0  0  0  0
    6.8681   44.1136   33.9326 O   0  0  0  0  0  0  0  0  0  0  0  0
    7.2753   46.5711   31.3007 C   0  0  0  0  0  0  0  0  0  0  0  0
    6.8391   47.8673   31.9487 C   0  0  0  0  0  0  0  0  0  0  0  0
    7.6623   49.0234   31.9437 C   0  0  0  0  0  0  0  0  0  0  0  0
    5.5787   47.9276   32.5725 C   0  0  0  0  0  0  0  0  0  0  0  0
    8.9131   49.0542   31.2373 N   0  0  0  0  0  4  0  0  0  0  0  0
    7.2373   50.1733   32.6324 C   0  0  0  0  0  0  0  0  0  0  0  0
    5.1659   49.0850   33.2341 C   0  0  0  0  0  0  0  0  0  0  0  0
    8.9888   48.5845   29.9463 O   0  0  0  0  0  1  0  0  0  0  0  0
    9.8799   49.6908   31.7048 O   0  0  0  0  0  0  0  0  0  0  0  0
    5.9985   50.2017   33.2741 C   0  0  0  0  0  0  0  0  0  0  0  0
    8.8092   40.1912   34.2080 O   0  0  0  0  0  0  0  0  0  0  0  0
   11.2391   40.7908   33.3693 O   0  0  0  0  0  0  0  0  0  0  0  0
   10.9191   40.6906   31.9960 C   0  0  0  0  0  0  0  0  0  0  0  0
   11.5176   39.3824   31.4411 C   0  0  0  0  0  0  0  0  0  0  0  0
   12.7495   39.0892   32.0754 O   0  0  0  0  0  0  0  0  0  0  0  0
   10.6036   38.1900   31.6659 C   0  0  0  0  0  0  0  0  0  0  0  0
   12.9401   37.6833   32.0276 C   0  0  0  0  0  0  0  0  0  0  0  0
    9.6376   38.0786   30.6474 O   0  0  0  0  0  0  0  0  0  0  0  0
   11.5803   37.0204   31.6937 C   0  0  0  0  0  0  0  0  0  0  0  0
   13.4902   37.2177   33.3237 N   0  0  0  0  0  0  0  0  0  0  0  0
   11.6117   36.3193   30.4680 O   0  0  0  0  0  0  0  0  0  0  0  0
   14.4759   36.3271   33.5731 C   0  0  0  0  0  0  0  0  0  0  0  0
   13.1176   37.6317   34.5688 C   0  0  0  0  0  0  0  0  0  0  0  0
   15.2064   35.6141   32.6742 N   0  0  0  0  0  0  0  0  0  0  0  0
   14.6729   36.2274   34.9184 C   0  0  0  0  0  0  0  0  0  0  0  0
   13.8221   37.0458   35.5783 N   0  0  0  0  0  0  0  0  0  0  0  0
   16.1637   34.7597   33.1549 C   0  0  0  0  0  0  0  0  0  0  0  0
   15.6514   35.3493   35.4133 C   0  0  0  0  0  0  0  0  0  0  0  0
   16.3791   34.6312   34.5044 N   0  0  0  0  0  0  0  0  0  0  0  0
   15.9001   35.1935   36.8091 N   0  0  0  0  0  0  0  0  0  0  0  0
    9.8250   44.9935   32.1499 H   0  0  0  0  0  0  0  0  0  0  0  0
   11.1093   46.2903   34.4919 H   0  0  0  0  0  0  0  0  0  0  0  0
   10.9138   46.9020   32.9337 H   0  0  0  0  0  0  0  0  0  0  0  0
    8.6109   46.7870   33.6955 H   0  0  0  0  0  0  0  0  0  0  0  0
    8.6723   45.5549   34.9703 H   0  0  0  0  0  0  0  0  0  0  0  0
    6.8061   46.5090   30.2968 H   0  0  0  0  0  0  0  0  0  0  0  0
    8.3726   46.5246   31.1609 H   0  0  0  0  0  0  0  0  0  0  0  0
    4.9178   47.0697   32.5618 H   0  0  0  0  0  0  0  0  0  0  0  0
    7.8574   51.0608   32.6491 H   0  0  0  0  0  0  0  0  0  0  0  0
    4.1998   49.1137   33.7214 H   0  0  0  0  0  0  0  0  0  0  0  0
    5.6777   51.0968   33.7912 H   0  0  0  0  0  0  0  0  0  0  0  0
   11.3998   41.5454   31.4740 H   0  0  0  0  0  0  0  0  0  0  0  0
    9.8311   40.7398   31.7562 H   0  0  0  0  0  0  0  0  0  0  0  0
   11.6990   39.5091   30.3488 H   0  0  0  0  0  0  0  0  0  0  0  0
   10.1131   38.2590   32.6664 H   0  0  0  0  0  0  0  0  0  0  0  0
   13.6800   37.4626   31.2265 H   0  0  0  0  0  0  0  0  0  0  0  0
    8.8954   38.6912   30.8890 H   0  0  0  0  0  0  0  0  0  0  0  0
   11.2830   36.3060   32.4929 H   0  0  0  0  0  0  0  0  0  0  0  0
   11.8859   36.9589   29.7593 H   0  0  0  0  0  0  0  0  0  0  0  0
   12.3360   38.3600   34.7441 H   0  0  0  0  0  0  0  0  0  0  0  0
   16.7572   34.1793   32.4621 H   0  0  0  0  0  0  0  0  0  0  0  0
   16.6362   34.5318   37.1416 H   0  0  0  0  0  0  0  0  0  0  0  0
   15.3528   35.7356   37.5140 H   0  0  0  0  0  0  0  0  0  0  0  0
  1  2  2  0
  1  3  1  0
  3  4  1  0
  4  5  1  0
  6  1  1  0
  7  6  1  0
  6  8  1  0
  8  9  1  0
  9 10  1  0
  9 11  2  0
 10 12  1  0
 12 13  1  0
 13 14  2  0
 15 13  1  0
 14 16  1  0
 14 17  1  0
 18 15  2  0
 16 19  1  0
 16 20  2  0
 17 21  2  0
 21 18  1  0
  4 22  2  0
  4 23  1  0
 24 23  1  0
 24 25  1  0
 25 26  1  0
 25 27  1  0
 26 28  1  0
 27 29  1  0
 27 30  1  0
 30 28  1  0
 28 31  1  0
 30 32  1  0
 33 31  1  0
 34 31  1  0
 35 33  2  0
 33 36  1  0
 37 34  2  0
 38 35  1  0
 36 39  2  0
 36 37  1  0
 40 38  2  0
 40 39  1  0
 39 41  1  0
  6 42  1  6
  7 43  1  0
  7 44  1  0
  8 45  1  0
  8 46  1  0
 12 47  1  0
 12 48  1  0
 15 49  1  0
 17 50  1  0
 18 51  1  0
 21 52  1  0
 24 53  1  0
 24 54  1  0
 25 55  1  0
 27 56  1  0
 28 57  1  0
 29 58  1  0
 30 59  1  0
 32 60  1  0
 34 61  1  0
 38 62  1  0
 41 63  1  0
 41 64  1  0
M  CHG  3   5  -1  16   1  19  -1
M  END
>  <EmbedRMS>  (32) 
0.08822042312353798

$$$$

     RDKit          3D

 64 67  0  0  0  0  0  0  0  0999 V2000
   10.2821   43.7757   33.8088 C   0  0  0  0  0  0  0  0  0  0  0  0
   11.4050   43.5928   34.3651 O   0  0  0  0  0  0  0  0  0  0  0  0
    9.3751   42.7265   33.6892 O   0  0  0  0  0  0  0  0  0  0  0  0
    9.8878   41.2324   34.2825 P   0  0  0  0  0  5  0  0  0  0  0  0
   10.3637   41.4715   35.8738 O   0  0  0  0  0  1  0  0  0  0  0  0
    9.9396   45.1269   33.2720 C   0  0  2  0  0  0  0  0  0  0  0  0
   11.0815   46.0230   33.4617 N   0  0  0  0  0  0  0  0  0  0  0  0
    8.7056   45.7127   33.9939 C   0  0  0  0  0  0  0  0  0  0  0  0
    7.4460   44.9809   33.6429 C   0  0  0  0  0  0  0  0  0  0  0  0
    7.0312   43.9134   34.4427 O   0  0  0  0  0  0  0  0  0  0  0  0
    6.8024   45.2977   32.6054 O   0  0  0  0  0  0  0  0  0  0  0  0
    5.9449   43.0581   34.0987 C   0  0  0  0  0  0  0  0  0  0  0  0
    5.9298   41.8351   34.9876 C   0  0  0  0  0  0  0  0  0  0  0  0
    5.4247   40.5900   34.5280 C   0  0  0  0  0  0  0  0  0  0  0  0
    6.4317   41.9254   36.3014 C   0  0  0  0  0  0  0  0  0  0  0  0
    4.8118   40.4563   33.2339 N   0  0  0  0  0  4  0  0  0  0  0  0
    5.5168   39.4606   35.3615 C   0  0  0  0  0  0  0  0  0  0  0  0
    6.4985   40.7962   37.1183 C   0  0  0  0  0  0  0  0  0  0  0  0
    3.9426   41.4186   32.7737 O   0  0  0  0  0  1  0  0  0  0  0  0
    4.9161   39.3866   32.5986 O   0  0  0  0  0  0  0  0  0  0  0  0
    6.0532   39.5640   36.6452 C   0  0  0  0  0  0  0  0  0  0  0  0
    8.8094   40.1905   34.2062 O   0  0  0  0  0  0  0  0  0  0  0  0
   11.2399   40.7868   33.3691 O   0  0  0  0  0  0  0  0  0  0  0  0
   10.9202   40.6880   31.9952 C   0  0  0  0  0  0  0  0  0  0  0  0
   11.5184   39.3796   31.4394 C   0  0  0  0  0  0  0  0  0  0  0  0
   12.7489   39.0870   32.0742 O   0  0  0  0  0  0  0  0  0  0  0  0
   10.6053   38.1875   31.6659 C   0  0  0  0  0  0  0  0  0  0  0  0
   12.9360   37.6811   32.0286 C   0  0  0  0  0  0  0  0  0  0  0  0
    9.6418   38.0740   30.6451 O   0  0  0  0  0  0  0  0  0  0  0  0
   11.5763   37.0156   31.7046 C   0  0  0  0  0  0  0  0  0  0  0  0
   13.4907   37.2181   33.3236 N   0  0  0  0  0  0  0  0  0  0  0  0
   11.6098   36.3398   30.4680 O   0  0  0  0  0  0  0  0  0  0  0  0
   14.4762   36.3273   33.5728 C   0  0  0  0  0  0  0  0  0  0  0  0
   13.1180   37.6317   34.5688 C   0  0  0  0  0  0  0  0  0  0  0  0
   15.2063   35.6140   32.6739 N   0  0  0  0  0  0  0  0  0  0  0  0
   14.6733   36.2275   34.9182 C   0  0  0  0  0  0  0  0  0  0  0  0
   13.8225   37.0457   35.5783 N   0  0  0  0  0  0  0  0  0  0  0  0
   16.1636   34.7594   33.1546 C   0  0  0  0  0  0  0  0  0  0  0  0
   15.6515   35.3493   35.4131 C   0  0  0  0  0  0  0  0  0  0  0  0
   16.3791   34.6310   34.5041 N   0  0  0  0  0  0  0  0  0  0  0  0
   15.9002   35.1934   36.8089 N   0  0  0  0  0  0  0  0  0  0  0  0
    9.7236   45.0358   32.1830 H   0  0  0  0  0  0  0  0  0  0  0  0
   11.8747   45.6767   32.8728 H   0  0  0  0  0  0  0  0  0  0  0  0
   10.8377   46.9612   33.0680 H   0  0  0  0  0  0  0  0  0  0  0  0
    8.5761   46.7798   33.7095 H   0  0  0  0  0  0  0  0  0  0  0  0
    8.8581   45.6807   35.0951 H   0  0  0  0  0  0  0  0  0  0  0  0
    6.0720   42.7477   33.0392 H   0  0  0  0  0  0  0  0  0  0  0  0
    4.9873   43.6099   34.2092 H   0  0  0  0  0  0  0  0  0  0  0  0
    6.7911   42.8683   36.6940 H   0  0  0  0  0  0  0  0  0  0  0  0
    5.1494   38.4997   35.0238 H   0  0  0  0  0  0  0  0  0  0  0  0
    6.9017   40.8764   38.1196 H   0  0  0  0  0  0  0  0  0  0  0  0
    6.1101   38.6889   37.2797 H   0  0  0  0  0  0  0  0  0  0  0  0
    9.8322   40.7373   31.7550 H   0  0  0  0  0  0  0  0  0  0  0  0
   11.4014   41.5430   31.4740 H   0  0  0  0  0  0  0  0  0  0  0  0
   11.7000   39.5043   30.3469 H   0  0  0  0  0  0  0  0  0  0  0  0
   10.1108   38.2621   32.6641 H   0  0  0  0  0  0  0  0  0  0  0  0
   13.6695   37.4576   31.2221 H   0  0  0  0  0  0  0  0  0  0  0  0
    8.8985   38.6865   30.8838 H   0  0  0  0  0  0  0  0  0  0  0  0
   11.2687   36.3067   32.5091 H   0  0  0  0  0  0  0  0  0  0  0  0
   12.1418   35.5147   30.6153 H   0  0  0  0  0  0  0  0  0  0  0  0
   12.3356   38.3591   34.7443 H   0  0  0  0  0  0  0  0  0  0  0  0
   16.7569   34.1789   32.4619 H   0  0  0  0  0  0  0  0  0  0  0  0
   15.3530   35.7357   37.5138 H   0  0  0  0  0  0  0  0  0  0  0  0
   16.6361   34.5316   37.1414 H   0  0  0  0  0  0  0  0  0  0  0  0
  1  2  2  0
  1  3  1  0
  3  4  1  0
  4  5  1  0
  6  1  1  0
  7  6  1  0
  6  8  1  0
  8  9  1  0
  9 10  1  0
  9 11  2  0
 10 12  1  0
 12 13  1  0
 13 14  2  0
 15 13  1  0
 14 16  1  0
 14 17  1  0
 18 15  2  0
 16 19  1  0
 16 20  2  0
 17 21  2  0
 21 18  1  0
  4 22  2  0
  4 23  1  0
 24 23  1  0
 24 25  1  0
 25 26  1  0
 25 27  1  0
 26 28  1  0
 27 29  1  0
 27 30  1  0
 30 28  1  0
 28 31  1  0
 30 32  1  0
 33 31  1  0
 34 31  1  0
 35 33  2  0
 33 36  1  0
 37 34  2  0
 38 35  1  0
 36 39  2  0
 36 37  1  0
 40 38  2  0
 40 39  1  0
 39 41  1  0
  6 42  1  6
  7 43  1  0
  7 44  1  0
  8 45  1  0
  8 46  1  0
 12 47  1  0
 12 48  1  0
 15 49  1  0
 17 50  1  0
 18 51  1  0
 21 52  1  0
 24 53  1  0
 24 54  1  0
 25 55  1  0
 27 56  1  0
 28 57  1  0
 29 58  1  0
 30 59  1  0
 32 60  1  0
 34 61  1  0
 38 62  1  0
 41 63  1  0
 41 64  1  0
M  CHG  3   5  -1  16   1  19  -1
M  END
>  <EmbedRMS>  (33) 
0.09039217873136804

$$$$

     RDKit          3D

 64 67  0  0  0  0  0  0  0  0999 V2000
   10.2770   43.7778   33.8147 C   0  0  0  0  0  0  0  0  0  0  0  0
   11.4037   43.5936   34.3631 O   0  0  0  0  0  0  0  0  0  0  0  0
    9.3695   42.7292   33.6979 O   0  0  0  0  0  0  0  0  0  0  0  0
    9.8880   41.2335   34.2833 P   0  0  0  0  0  5  0  0  0  0  0  0
   10.3668   41.4697   35.8741 O   0  0  0  0  0  1  0  0  0  0  0  0
    9.9493   45.1172   33.2492 C   0  0  2  0  0  0  0  0  0  0  0  0
   11.0804   46.0198   33.4735 N   0  0  0  0  0  0  0  0  0  0  0  0
    8.6585   45.7135   33.8622 C   0  0  0  0  0  0  0  0  0  0  0  0
    7.3988   45.0426   33.3650 C   0  0  0  0  0  0  0  0  0  0  0  0
    6.6771   45.4868   32.2448 O   0  0  0  0  0  0  0  0  0  0  0  0
    6.9634   44.0402   33.9901 O   0  0  0  0  0  0  0  0  0  0  0  0
    6.9601   46.6623   31.4838 C   0  0  0  0  0  0  0  0  0  0  0  0
    8.1576   46.4579   30.5857 C   0  0  0  0  0  0  0  0  0  0  0  0
    9.1798   47.4326   30.4515 C   0  0  0  0  0  0  0  0  0  0  0  0
    8.2626   45.2514   29.8685 C   0  0  0  0  0  0  0  0  0  0  0  0
    9.0725   48.7266   31.0655 N   0  0  0  0  0  4  0  0  0  0  0  0
   10.3174   47.1329   29.6812 C   0  0  0  0  0  0  0  0  0  0  0  0
    9.3905   44.9803   29.0927 C   0  0  0  0  0  0  0  0  0  0  0  0
    7.9145   49.4574   30.9313 O   0  0  0  0  0  1  0  0  0  0  0  0
   10.0897   49.2884   31.5215 O   0  0  0  0  0  0  0  0  0  0  0  0
   10.4222   45.9137   29.0103 C   0  0  0  0  0  0  0  0  0  0  0  0
    8.8100   40.1910   34.2072 O   0  0  0  0  0  0  0  0  0  0  0  0
   11.2402   40.7902   33.3679 O   0  0  0  0  0  0  0  0  0  0  0  0
   10.9202   40.6898   31.9943 C   0  0  0  0  0  0  0  0  0  0  0  0
   11.5174   39.3802   31.4392 C   0  0  0  0  0  0  0  0  0  0  0  0
   12.7481   39.0861   32.0729 O   0  0  0  0  0  0  0  0  0  0  0  0
   10.6032   38.1894   31.6664 C   0  0  0  0  0  0  0  0  0  0  0  0
   12.9335   37.6796   32.0278 C   0  0  0  0  0  0  0  0  0  0  0  0
    9.6396   38.0779   30.6456 O   0  0  0  0  0  0  0  0  0  0  0  0
   11.5738   37.0155   31.7057 C   0  0  0  0  0  0  0  0  0  0  0  0
   13.4903   37.2178   33.3230 N   0  0  0  0  0  0  0  0  0  0  0  0
   11.6209   36.3376   30.4695 O   0  0  0  0  0  0  0  0  0  0  0  0
   14.4761   36.3273   33.5724 C   0  0  0  0  0  0  0  0  0  0  0  0
   13.1178   37.6317   34.5683 C   0  0  0  0  0  0  0  0  0  0  0  0
   15.2063   35.6139   32.6737 N   0  0  0  0  0  0  0  0  0  0  0  0
   14.6733   36.2277   34.9179 C   0  0  0  0  0  0  0  0  0  0  0  0
   13.8225   37.0459   35.5779 N   0  0  0  0  0  0  0  0  0  0  0  0
   16.1636   34.7594   33.1546 C   0  0  0  0  0  0  0  0  0  0  0  0
   15.6515   35.3494   35.4129 C   0  0  0  0  0  0  0  0  0  0  0  0
   16.3791   34.6311   34.5041 N   0  0  0  0  0  0  0  0  0  0  0  0
   15.9001   35.1936   36.8088 N   0  0  0  0  0  0  0  0  0  0  0  0
    9.8221   44.9867   32.1562 H   0  0  0  0  0  0  0  0  0  0  0  0
   10.9277   46.8930   32.9186 H   0  0  0  0  0  0  0  0  0  0  0  0
   11.1160   46.2950   34.4830 H   0  0  0  0  0  0  0  0  0  0  0  0
    8.7020   45.6277   34.9705 H   0  0  0  0  0  0  0  0  0  0  0  0
    8.6120   46.7992   33.6449 H   0  0  0  0  0  0  0  0  0  0  0  0
    6.0830   46.8796   30.8393 H   0  0  0  0  0  0  0  0  0  0  0  0
    7.0736   47.5205   32.1744 H   0  0  0  0  0  0  0  0  0  0  0  0
    7.4804   44.5049   29.9328 H   0  0  0  0  0  0  0  0  0  0  0  0
   11.1147   47.8584   29.5791 H   0  0  0  0  0  0  0  0  0  0  0  0
    9.4684   44.0403   28.5618 H   0  0  0  0  0  0  0  0  0  0  0  0
   11.2987   45.6988   28.4128 H   0  0  0  0  0  0  0  0  0  0  0  0
   11.4016   41.5441   31.4720 H   0  0  0  0  0  0  0  0  0  0  0  0
    9.8322   40.7404   31.7545 H   0  0  0  0  0  0  0  0  0  0  0  0
   11.6985   39.5043   30.3465 H   0  0  0  0  0  0  0  0  0  0  0  0
   10.1091   38.2637   32.6647 H   0  0  0  0  0  0  0  0  0  0  0  0
   13.6655   37.4538   31.2206 H   0  0  0  0  0  0  0  0  0  0  0  0
    8.8973   38.6915   30.8842 H   0  0  0  0  0  0  0  0  0  0  0  0
   11.2844   36.3062   32.5175 H   0  0  0  0  0  0  0  0  0  0  0  0
   10.8521   35.7096   30.4590 H   0  0  0  0  0  0  0  0  0  0  0  0
   12.3353   38.3588   34.7439 H   0  0  0  0  0  0  0  0  0  0  0  0
   16.7570   34.1788   32.4619 H   0  0  0  0  0  0  0  0  0  0  0  0
   16.6359   34.5317   37.1413 H   0  0  0  0  0  0  0  0  0  0  0  0
   15.3528   35.7359   37.5136 H   0  0  0  0  0  0  0  0  0  0  0  0
  1  2  2  0
  1  3  1  0
  3  4  1  0
  4  5  1  0
  6  1  1  0
  7  6  1  0
  6  8  1  0
  8  9  1  0
  9 10  1  0
  9 11  2  0
 10 12  1  0
 12 13  1  0
 13 14  2  0
 15 13  1  0
 14 16  1  0
 14 17  1  0
 18 15  2  0
 16 19  1  0
 16 20  2  0
 17 21  2  0
 21 18  1  0
  4 22  2  0
  4 23  1  0
 24 23  1  0
 24 25  1  0
 25 26  1  0
 25 27  1  0
 26 28  1  0
 27 29  1  0
 27 30  1  0
 30 28  1  0
 28 31  1  0
 30 32  1  0
 33 31  1  0
 34 31  1  0
 35 33  2  0
 33 36  1  0
 37 34  2  0
 38 35  1  0
 36 39  2  0
 36 37  1  0
 40 38  2  0
 40 39  1  0
 39 41  1  0
  6 42  1  6
  7 43  1  0
  7 44  1  0
  8 45  1  0
  8 46  1  0
 12 47  1  0
 12 48  1  0
 15 49  1  0
 17 50  1  0
 18 51  1  0
 21 52  1  0
 24 53  1  0
 24 54  1  0
 25 55  1  0
 27 56  1  0
 28 57  1  0
 29 58  1  0
 30 59  1  0
 32 60  1  0
 34 61  1  0
 38 62  1  0
 41 63  1  0
 41 64  1  0
M  CHG  3   5  -1  16   1  19  -1
M  END
>  <EmbedRMS>  (34) 
0.08942348969856029

$$$$

     RDKit          3D

 64 67  0  0  0  0  0  0  0  0999 V2000
   10.2873   43.7712   33.8023 C   0  0  0  0  0  0  0  0  0  0  0  0
   11.4124   43.5866   34.3530 O   0  0  0  0  0  0  0  0  0  0  0  0
    9.3673   42.7310   33.6998 O   0  0  0  0  0  0  0  0  0  0  0  0
    9.8848   41.2345   34.2849 P   0  0  0  0  0  5  0  0  0  0  0  0
   10.3656   41.4711   35.8751 O   0  0  0  0  0  1  0  0  0  0  0  0
    9.9570   45.1112   33.2465 C   0  0  2  0  0  0  0  0  0  0  0  0
   11.0654   46.0376   33.4882 N   0  0  0  0  0  0  0  0  0  0  0  0
    8.6203   45.6546   33.8014 C   0  0  0  0  0  0  0  0  0  0  0  0
    8.6187   45.8097   35.2948 C   0  0  0  0  0  0  0  0  0  0  0  0
    8.6727   44.6705   36.1053 O   0  0  0  0  0  0  0  0  0  0  0  0
    8.5720   46.9618   35.8061 O   0  0  0  0  0  0  0  0  0  0  0  0
    8.5794   44.7140   37.5268 C   0  0  0  0  0  0  0  0  0  0  0  0
    7.1658   45.0310   37.9547 C   0  0  0  0  0  0  0  0  0  0  0  0
    6.0497   44.2754   37.5000 C   0  0  0  0  0  0  0  0  0  0  0  0
    6.9494   46.1368   38.7971 C   0  0  0  0  0  0  0  0  0  0  0  0
    6.1996   43.1255   36.6465 N   0  0  0  0  0  4  0  0  0  0  0  0
    4.7553   44.6741   37.8782 C   0  0  0  0  0  0  0  0  0  0  0  0
    5.6569   46.5041   39.1727 C   0  0  0  0  0  0  0  0  0  0  0  0
    5.2034   42.7971   35.7559 O   0  0  0  0  0  1  0  0  0  0  0  0
    7.1442   42.3265   36.8094 O   0  0  0  0  0  0  0  0  0  0  0  0
    4.5620   45.7772   38.7105 C   0  0  0  0  0  0  0  0  0  0  0  0
    8.8069   40.1921   34.2099 O   0  0  0  0  0  0  0  0  0  0  0  0
   11.2362   40.7903   33.3681 O   0  0  0  0  0  0  0  0  0  0  0  0
   10.9132   40.6860   31.9954 C   0  0  0  0  0  0  0  0  0  0  0  0
   11.5167   39.3799   31.4412 C   0  0  0  0  0  0  0  0  0  0  0  0
   12.7487   39.0887   32.0764 O   0  0  0  0  0  0  0  0  0  0  0  0
   10.6050   38.1876   31.6660 C   0  0  0  0  0  0  0  0  0  0  0  0
   12.9411   37.6829   32.0278 C   0  0  0  0  0  0  0  0  0  0  0  0
    9.6358   38.0931   30.6503 O   0  0  0  0  0  0  0  0  0  0  0  0
   11.5827   37.0180   31.6937 C   0  0  0  0  0  0  0  0  0  0  0  0
   13.4908   37.2177   33.3239 N   0  0  0  0  0  0  0  0  0  0  0  0
   11.6141   36.3181   30.4675 O   0  0  0  0  0  0  0  0  0  0  0  0
   14.4762   36.3270   33.5733 C   0  0  0  0  0  0  0  0  0  0  0  0
   13.1179   37.6316   34.5689 C   0  0  0  0  0  0  0  0  0  0  0  0
   15.2067   35.6140   32.6743 N   0  0  0  0  0  0  0  0  0  0  0  0
   14.6731   36.2273   34.9186 C   0  0  0  0  0  0  0  0  0  0  0  0
   13.8223   37.0456   35.5785 N   0  0  0  0  0  0  0  0  0  0  0  0
   16.1639   34.7595   33.1550 C   0  0  0  0  0  0  0  0  0  0  0  0
   15.6515   35.3491   35.4134 C   0  0  0  0  0  0  0  0  0  0  0  0
   16.3792   34.6310   34.5045 N   0  0  0  0  0  0  0  0  0  0  0  0
   15.9002   35.1933   36.8093 N   0  0  0  0  0  0  0  0  0  0  0  0
    9.8429   44.9884   32.1470 H   0  0  0  0  0  0  0  0  0  0  0  0
   10.8568   46.9410   33.0038 H   0  0  0  0  0  0  0  0  0  0  0  0
   11.1435   46.2449   34.5107 H   0  0  0  0  0  0  0  0  0  0  0  0
    8.3989   46.6341   33.3238 H   0  0  0  0  0  0  0  0  0  0  0  0
    7.7953   44.9653   33.5190 H   0  0  0  0  0  0  0  0  0  0  0  0
    8.8771   43.7301   37.9435 H   0  0  0  0  0  0  0  0  0  0  0  0
    9.3083   45.4559   37.9212 H   0  0  0  0  0  0  0  0  0  0  0  0
    7.7833   46.7268   39.1570 H   0  0  0  0  0  0  0  0  0  0  0  0
    3.8904   44.1176   37.5399 H   0  0  0  0  0  0  0  0  0  0  0  0
    5.5038   47.3592   39.8185 H   0  0  0  0  0  0  0  0  0  0  0  0
    3.5601   46.0672   38.9999 H   0  0  0  0  0  0  0  0  0  0  0  0
   11.3851   41.5435   31.4699 H   0  0  0  0  0  0  0  0  0  0  0  0
    9.8231   40.7209   31.7589 H   0  0  0  0  0  0  0  0  0  0  0  0
   11.6991   39.5070   30.3491 H   0  0  0  0  0  0  0  0  0  0  0  0
   10.1119   38.2721   32.6633 H   0  0  0  0  0  0  0  0  0  0  0  0
   13.6816   37.4634   31.2269 H   0  0  0  0  0  0  0  0  0  0  0  0
    9.0036   37.3829   30.9348 H   0  0  0  0  0  0  0  0  0  0  0  0
   11.2846   36.3041   32.4928 H   0  0  0  0  0  0  0  0  0  0  0  0
   11.8849   36.9591   29.7589 H   0  0  0  0  0  0  0  0  0  0  0  0
   12.3363   38.3599   34.7441 H   0  0  0  0  0  0  0  0  0  0  0  0
   16.7574   34.1791   32.4623 H   0  0  0  0  0  0  0  0  0  0  0  0
   16.6363   34.5316   37.1417 H   0  0  0  0  0  0  0  0  0  0  0  0
   15.3529   35.7355   37.5141 H   0  0  0  0  0  0  0  0  0  0  0  0
  1  2  2  0
  1  3  1  0
  3  4  1  0
  4  5  1  0
  6  1  1  0
  7  6  1  0
  6  8  1  0
  8  9  1  0
  9 10  1  0
  9 11  2  0
 10 12  1  0
 12 13  1  0
 13 14  2  0
 15 13  1  0
 14 16  1  0
 14 17  1  0
 18 15  2  0
 16 19  1  0
 16 20  2  0
 17 21  2  0
 21 18  1  0
  4 22  2  0
  4 23  1  0
 24 23  1  0
 24 25  1  0
 25 26  1  0
 25 27  1  0
 26 28  1  0
 27 29  1  0
 27 30  1  0
 30 28  1  0
 28 31  1  0
 30 32  1  0
 33 31  1  0
 34 31  1  0
 35 33  2  0
 33 36  1  0
 37 34  2  0
 38 35  1  0
 36 39  2  0
 36 37  1  0
 40 38  2  0
 40 39  1  0
 39 41  1  0
  6 42  1  6
  7 43  1  0
  7 44  1  0
  8 45  1  0
  8 46  1  0
 12 47  1  0
 12 48  1  0
 15 49  1  0
 17 50  1  0
 18 51  1  0
 21 52  1  0
 24 53  1  0
 24 54  1  0
 25 55  1  0
 27 56  1  0
 28 57  1  0
 29 58  1  0
 30 59  1  0
 32 60  1  0
 34 61  1  0
 38 62  1  0
 41 63  1  0
 41 64  1  0
M  CHG  3   5  -1  16   1  19  -1
M  END
>  <EmbedRMS>  (35) 
0.08777284540472378

$$$$

     RDKit          3D

 64 67  0  0  0  0  0  0  0  0999 V2000
   10.2846   43.7736   33.8086 C   0  0  0  0  0  0  0  0  0  0  0  0
   11.4106   43.5877   34.3567 O   0  0  0  0  0  0  0  0  0  0  0  0
    9.3661   42.7323   33.7042 O   0  0  0  0  0  0  0  0  0  0  0  0
    9.8849   41.2344   34.2852 P   0  0  0  0  0  5  0  0  0  0  0  0
   10.3658   41.4659   35.8756 O   0  0  0  0  0  1  0  0  0  0  0  0
    9.9591   45.1107   33.2406 C   0  0  2  0  0  0  0  0  0  0  0  0
   11.0671   46.0368   33.4834 N   0  0  0  0  0  0  0  0  0  0  0  0
    8.6429   45.6621   33.8254 C   0  0  0  0  0  0  0  0  0  0  0  0
    8.7433   45.9717   35.2898 C   0  0  0  0  0  0  0  0  0  0  0  0
    8.4975   44.9638   36.2298 O   0  0  0  0  0  0  0  0  0  0  0  0
    9.0641   47.1337   35.6617 O   0  0  0  0  0  0  0  0  0  0  0  0
    8.5036   45.1957   37.6389 C   0  0  0  0  0  0  0  0  0  0  0  0
    9.9017   45.4820   38.1444 C   0  0  0  0  0  0  0  0  0  0  0  0
   10.1650   46.4758   39.1241 C   0  0  0  0  0  0  0  0  0  0  0  0
   10.9736   44.7309   37.6294 C   0  0  0  0  0  0  0  0  0  0  0  0
    9.1078   47.1971   39.7769 N   0  0  0  0  0  4  0  0  0  0  0  0
   11.4959   46.7505   39.4836 C   0  0  0  0  0  0  0  0  0  0  0  0
   12.2868   45.0042   38.0132 C   0  0  0  0  0  0  0  0  0  0  0  0
    9.2987   48.5097   40.1426 O   0  0  0  0  0  1  0  0  0  0  0  0
    8.1124   46.5878   40.2198 O   0  0  0  0  0  0  0  0  0  0  0  0
   12.5487   46.0214   38.9289 C   0  0  0  0  0  0  0  0  0  0  0  0
    8.8075   40.1914   34.2081 O   0  0  0  0  0  0  0  0  0  0  0  0
   11.2367   40.7916   33.3689 O   0  0  0  0  0  0  0  0  0  0  0  0
   10.9150   40.6900   31.9960 C   0  0  0  0  0  0  0  0  0  0  0  0
   11.5268   39.3900   31.4376 C   0  0  0  0  0  0  0  0  0  0  0  0
   12.7505   39.0918   32.0841 O   0  0  0  0  0  0  0  0  0  0  0  0
   10.6121   38.1916   31.6453 C   0  0  0  0  0  0  0  0  0  0  0  0
   12.9428   37.6855   32.0296 C   0  0  0  0  0  0  0  0  0  0  0  0
    9.6070   38.0858   30.6603 O   0  0  0  0  0  0  0  0  0  0  0  0
   11.5845   37.0187   31.6880 C   0  0  0  0  0  0  0  0  0  0  0  0
   13.4898   37.2164   33.3250 N   0  0  0  0  0  0  0  0  0  0  0  0
   11.6202   36.3064   30.4693 O   0  0  0  0  0  0  0  0  0  0  0  0
   14.4758   36.3264   33.5739 C   0  0  0  0  0  0  0  0  0  0  0  0
   13.1176   37.6308   34.5699 C   0  0  0  0  0  0  0  0  0  0  0  0
   15.2065   35.6139   32.6746 N   0  0  0  0  0  0  0  0  0  0  0  0
   14.6731   36.2268   34.9191 C   0  0  0  0  0  0  0  0  0  0  0  0
   13.8224   37.0450   35.5792 N   0  0  0  0  0  0  0  0  0  0  0  0
   16.1640   34.7596   33.1551 C   0  0  0  0  0  0  0  0  0  0  0  0
   15.6517   35.3489   35.4136 C   0  0  0  0  0  0  0  0  0  0  0  0
   16.3795   34.6310   34.5046 N   0  0  0  0  0  0  0  0  0  0  0  0
   15.9006   35.1931   36.8094 N   0  0  0  0  0  0  0  0  0  0  0  0
    9.8226   44.9876   32.1426 H   0  0  0  0  0  0  0  0  0  0  0  0
   10.8084   46.9715   33.0912 H   0  0  0  0  0  0  0  0  0  0  0  0
   11.8932   45.7183   32.9251 H   0  0  0  0  0  0  0  0  0  0  0  0
    7.8208   44.9317   33.6631 H   0  0  0  0  0  0  0  0  0  0  0  0
    8.3605   46.5871   33.2767 H   0  0  0  0  0  0  0  0  0  0  0  0
    8.1206   44.2888   38.1515 H   0  0  0  0  0  0  0  0  0  0  0  0
    7.8060   46.0317   37.8518 H   0  0  0  0  0  0  0  0  0  0  0  0
   10.7926   43.9387   36.9168 H   0  0  0  0  0  0  0  0  0  0  0  0
   11.7172   47.5136   40.2191 H   0  0  0  0  0  0  0  0  0  0  0  0
   13.1029   44.4282   37.5963 H   0  0  0  0  0  0  0  0  0  0  0  0
   13.5683   46.2343   39.2230 H   0  0  0  0  0  0  0  0  0  0  0  0
   11.3814   41.5528   31.4742 H   0  0  0  0  0  0  0  0  0  0  0  0
    9.8248   40.7190   31.7592 H   0  0  0  0  0  0  0  0  0  0  0  0
   11.7317   39.5340   30.3522 H   0  0  0  0  0  0  0  0  0  0  0  0
   10.1213   38.2682   32.6413 H   0  0  0  0  0  0  0  0  0  0  0  0
   13.6882   37.4711   31.2320 H   0  0  0  0  0  0  0  0  0  0  0  0
   10.0257   38.1752   29.7656 H   0  0  0  0  0  0  0  0  0  0  0  0
   11.2796   36.3124   32.4916 H   0  0  0  0  0  0  0  0  0  0  0  0
   11.9872   36.9100   29.7715 H   0  0  0  0  0  0  0  0  0  0  0  0
   12.3366   38.3597   34.7454 H   0  0  0  0  0  0  0  0  0  0  0  0
   16.7576   34.1795   32.4622 H   0  0  0  0  0  0  0  0  0  0  0  0
   16.6368   34.5316   37.1418 H   0  0  0  0  0  0  0  0  0  0  0  0
   15.3532   35.7351   37.5143 H   0  0  0  0  0  0  0  0  0  0  0  0
  1  2  2  0
  1  3  1  0
  3  4  1  0
  4  5  1  0
  6  1  1  0
  7  6  1  0
  6  8  1  0
  8  9  1  0
  9 10  1  0
  9 11  2  0
 10 12  1  0
 12 13  1  0
 13 14  2  0
 15 13  1  0
 14 16  1  0
 14 17  1  0
 18 15  2  0
 16 19  1  0
 16 20  2  0
 17 21  2  0
 21 18  1  0
  4 22  2  0
  4 23  1  0
 24 23  1  0
 24 25  1  0
 25 26  1  0
 25 27  1  0
 26 28  1  0
 27 29  1  0
 27 30  1  0
 30 28  1  0
 28 31  1  0
 30 32  1  0
 33 31  1  0
 34 31  1  0
 35 33  2  0
 33 36  1  0
 37 34  2  0
 38 35  1  0
 36 39  2  0
 36 37  1  0
 40 38  2  0
 40 39  1  0
 39 41  1  0
  6 42  1  6
  7 43  1  0
  7 44  1  0
  8 45  1  0
  8 46  1  0
 12 47  1  0
 12 48  1  0
 15 49  1  0
 17 50  1  0
 18 51  1  0
 21 52  1  0
 24 53  1  0
 24 54  1  0
 25 55  1  0
 27 56  1  0
 28 57  1  0
 29 58  1  0
 30 59  1  0
 32 60  1  0
 34 61  1  0
 38 62  1  0
 41 63  1  0
 41 64  1  0
M  CHG  3   5  -1  16   1  19  -1
M  END
>  <EmbedRMS>  (36) 
0.08712434953433296

$$$$

     RDKit          3D

 64 67  0  0  0  0  0  0  0  0999 V2000
   10.2859   43.7721   33.8048 C   0  0  0  0  0  0  0  0  0  0  0  0
   11.4084   43.5885   34.3612 O   0  0  0  0  0  0  0  0  0  0  0  0
    9.3674   42.7309   33.6993 O   0  0  0  0  0  0  0  0  0  0  0  0
    9.8853   41.2341   34.2839 P   0  0  0  0  0  5  0  0  0  0  0  0
   10.3658   41.4700   35.8744 O   0  0  0  0  0  1  0  0  0  0  0  0
    9.9531   45.1148   33.2532 C   0  0  2  0  0  0  0  0  0  0  0  0
   11.0714   46.0332   33.4764 N   0  0  0  0  0  0  0  0  0  0  0  0
    8.6603   45.6661   33.8880 C   0  0  0  0  0  0  0  0  0  0  0  0
    8.7937   45.8698   35.3680 C   0  0  0  0  0  0  0  0  0  0  0  0
    9.3588   47.0565   35.8511 O   0  0  0  0  0  0  0  0  0  0  0  0
    8.4207   44.9626   36.1613 O   0  0  0  0  0  0  0  0  0  0  0  0
    9.5614   47.3230   37.2397 C   0  0  0  0  0  0  0  0  0  0  0  0
    8.3568   47.9641   37.9057 C   0  0  0  0  0  0  0  0  0  0  0  0
    8.4602   48.5185   39.2132 C   0  0  0  0  0  0  0  0  0  0  0  0
    7.1213   48.0514   37.2280 C   0  0  0  0  0  0  0  0  0  0  0  0
    9.6838   48.4684   39.9712 N   0  0  0  0  0  4  0  0  0  0  0  0
    7.3435   49.1575   39.7808 C   0  0  0  0  0  0  0  0  0  0  0  0
    6.0232   48.6766   37.8193 C   0  0  0  0  0  0  0  0  0  0  0  0
    9.9735   49.4675   40.8721 O   0  0  0  0  0  1  0  0  0  0  0  0
   10.4068   47.4516   39.9530 O   0  0  0  0  0  0  0  0  0  0  0  0
    6.1346   49.2311   39.0909 C   0  0  0  0  0  0  0  0  0  0  0  0
    8.8077   40.1913   34.2086 O   0  0  0  0  0  0  0  0  0  0  0  0
   11.2370   40.7898   33.3681 O   0  0  0  0  0  0  0  0  0  0  0  0
   10.9154   40.6881   31.9950 C   0  0  0  0  0  0  0  0  0  0  0  0
   11.5261   39.3871   31.4365 C   0  0  0  0  0  0  0  0  0  0  0  0
   12.7491   39.0893   32.0819 O   0  0  0  0  0  0  0  0  0  0  0  0
   10.6123   38.1893   31.6461 C   0  0  0  0  0  0  0  0  0  0  0  0
   12.9373   37.6827   32.0301 C   0  0  0  0  0  0  0  0  0  0  0  0
    9.6150   38.0838   30.6538 O   0  0  0  0  0  0  0  0  0  0  0  0
   11.5793   37.0136   31.7014 C   0  0  0  0  0  0  0  0  0  0  0  0
   13.4906   37.2169   33.3242 N   0  0  0  0  0  0  0  0  0  0  0  0
   11.6217   36.3252   30.4725 O   0  0  0  0  0  0  0  0  0  0  0  0
   14.4763   36.3266   33.5731 C   0  0  0  0  0  0  0  0  0  0  0  0
   13.1182   37.6308   34.5694 C   0  0  0  0  0  0  0  0  0  0  0  0
   15.2065   35.6137   32.6740 N   0  0  0  0  0  0  0  0  0  0  0  0
   14.6735   36.2270   34.9185 C   0  0  0  0  0  0  0  0  0  0  0  0
   13.8229   37.0451   35.5787 N   0  0  0  0  0  0  0  0  0  0  0  0
   16.1639   34.7593   33.1547 C   0  0  0  0  0  0  0  0  0  0  0  0
   15.6519   35.3489   35.4132 C   0  0  0  0  0  0  0  0  0  0  0  0
   16.3795   34.6308   34.5042 N   0  0  0  0  0  0  0  0  0  0  0  0
   15.9006   35.1931   36.8090 N   0  0  0  0  0  0  0  0  0  0  0  0
    9.7837   45.0049   32.1584 H   0  0  0  0  0  0  0  0  0  0  0  0
   10.8102   46.9715   33.0943 H   0  0  0  0  0  0  0  0  0  0  0  0
   11.8829   45.7122   32.8985 H   0  0  0  0  0  0  0  0  0  0  0  0
    8.4029   46.6381   33.4148 H   0  0  0  0  0  0  0  0  0  0  0  0
    7.8144   44.9741   33.6816 H   0  0  0  0  0  0  0  0  0  0  0  0
   10.4206   48.0216   37.3218 H   0  0  0  0  0  0  0  0  0  0  0  0
    9.8345   46.3835   37.7662 H   0  0  0  0  0  0  0  0  0  0  0  0
    6.9941   47.6523   36.2322 H   0  0  0  0  0  0  0  0  0  0  0  0
    7.4045   49.5882   40.7723 H   0  0  0  0  0  0  0  0  0  0  0  0
    5.0836   48.7374   37.2852 H   0  0  0  0  0  0  0  0  0  0  0  0
    5.2815   49.7191   39.5444 H   0  0  0  0  0  0  0  0  0  0  0  0
    9.8252   40.7180   31.7580 H   0  0  0  0  0  0  0  0  0  0  0  0
   11.3827   41.5503   31.4728 H   0  0  0  0  0  0  0  0  0  0  0  0
   11.7291   39.5287   30.3504 H   0  0  0  0  0  0  0  0  0  0  0  0
   10.1139   38.2718   32.6380 H   0  0  0  0  0  0  0  0  0  0  0  0
   13.6726   37.4636   31.2240 H   0  0  0  0  0  0  0  0  0  0  0  0
   10.0536   38.1085   29.7638 H   0  0  0  0  0  0  0  0  0  0  0  0
   11.2646   36.3134   32.5107 H   0  0  0  0  0  0  0  0  0  0  0  0
   12.1550   35.5032   30.6315 H   0  0  0  0  0  0  0  0  0  0  0  0
   12.3362   38.3586   34.7450 H   0  0  0  0  0  0  0  0  0  0  0  0
   16.7574   34.1788   32.4619 H   0  0  0  0  0  0  0  0  0  0  0  0
   16.6366   34.5314   37.1415 H   0  0  0  0  0  0  0  0  0  0  0  0
   15.3533   35.7353   37.5139 H   0  0  0  0  0  0  0  0  0  0  0  0
  1  2  2  0
  1  3  1  0
  3  4  1  0
  4  5  1  0
  6  1  1  0
  7  6  1  0
  6  8  1  0
  8  9  1  0
  9 10  1  0
  9 11  2  0
 10 12  1  0
 12 13  1  0
 13 14  2  0
 15 13  1  0
 14 16  1  0
 14 17  1  0
 18 15  2  0
 16 19  1  0
 16 20  2  0
 17 21  2  0
 21 18  1  0
  4 22  2  0
  4 23  1  0
 24 23  1  0
 24 25  1  0
 25 26  1  0
 25 27  1  0
 26 28  1  0
 27 29  1  0
 27 30  1  0
 30 28  1  0
 28 31  1  0
 30 32  1  0
 33 31  1  0
 34 31  1  0
 35 33  2  0
 33 36  1  0
 37 34  2  0
 38 35  1  0
 36 39  2  0
 36 37  1  0
 40 38  2  0
 40 39  1  0
 39 41  1  0
  6 42  1  6
  7 43  1  0
  7 44  1  0
  8 45  1  0
  8 46  1  0
 12 47  1  0
 12 48  1  0
 15 49  1  0
 17 50  1  0
 18 51  1  0
 21 52  1  0
 24 53  1  0
 24 54  1  0
 25 55  1  0
 27 56  1  0
 28 57  1  0
 29 58  1  0
 30 59  1  0
 32 60  1  0
 34 61  1  0
 38 62  1  0
 41 63  1  0
 41 64  1  0
M  CHG  3   5  -1  16   1  19  -1
M  END
>  <EmbedRMS>  (37) 
0.08793430442442007

$$$$

     RDKit          3D

 64 67  0  0  0  0  0  0  0  0999 V2000
   10.2811   43.7761   33.8098 C   0  0  0  0  0  0  0  0  0  0  0  0
   11.4071   43.5920   34.3592 O   0  0  0  0  0  0  0  0  0  0  0  0
    9.3696   42.7295   33.6984 O   0  0  0  0  0  0  0  0  0  0  0  0
    9.8864   41.2339   34.2846 P   0  0  0  0  0  5  0  0  0  0  0  0
   10.3661   41.4703   35.8750 O   0  0  0  0  0  1  0  0  0  0  0  0
    9.9502   45.1173   33.2488 C   0  0  2  0  0  0  0  0  0  0  0  0
   11.0751   46.0256   33.4793 N   0  0  0  0  0  0  0  0  0  0  0  0
    8.6568   45.6936   33.8675 C   0  0  0  0  0  0  0  0  0  0  0  0
    7.4402   44.9337   33.4352 C   0  0  0  0  0  0  0  0  0  0  0  0
    6.8347   44.0399   34.3262 O   0  0  0  0  0  0  0  0  0  0  0  0
    6.9910   45.0824   32.2659 O   0  0  0  0  0  0  0  0  0  0  0  0
    5.7202   43.2207   33.9742 C   0  0  0  0  0  0  0  0  0  0  0  0
    4.4547   44.0363   33.8094 C   0  0  0  0  0  0  0  0  0  0  0  0
    3.4380   43.6605   32.8911 C   0  0  0  0  0  0  0  0  0  0  0  0
    4.2659   45.1830   34.6054 C   0  0  0  0  0  0  0  0  0  0  0  0
    3.5146   42.4436   32.1293 N   0  0  0  0  0  4  0  0  0  0  0  0
    2.3153   44.4912   32.7311 C   0  0  0  0  0  0  0  0  0  0  0  0
    3.1340   45.9833   34.4455 C   0  0  0  0  0  0  0  0  0  0  0  0
    2.9634   42.3871   30.8698 O   0  0  0  0  0  1  0  0  0  0  0  0
    3.8842   41.3818   32.6717 O   0  0  0  0  0  0  0  0  0  0  0  0
    2.1669   45.6451   33.5014 C   0  0  0  0  0  0  0  0  0  0  0  0
    8.8080   40.1919   34.2087 O   0  0  0  0  0  0  0  0  0  0  0  0
   11.2377   40.7897   33.3690 O   0  0  0  0  0  0  0  0  0  0  0  0
   10.9157   40.6896   31.9961 C   0  0  0  0  0  0  0  0  0  0  0  0
   11.5270   39.3897   31.4372 C   0  0  0  0  0  0  0  0  0  0  0  0
   12.7508   39.0915   32.0836 O   0  0  0  0  0  0  0  0  0  0  0  0
   10.6121   38.1916   31.6452 C   0  0  0  0  0  0  0  0  0  0  0  0
   12.9429   37.6852   32.0294 C   0  0  0  0  0  0  0  0  0  0  0  0
    9.6069   38.0858   30.6603 O   0  0  0  0  0  0  0  0  0  0  0  0
   11.5844   37.0185   31.6879 C   0  0  0  0  0  0  0  0  0  0  0  0
   13.4898   37.2163   33.3249 N   0  0  0  0  0  0  0  0  0  0  0  0
   11.6200   36.3062   30.4693 O   0  0  0  0  0  0  0  0  0  0  0  0
   14.4759   36.3263   33.5738 C   0  0  0  0  0  0  0  0  0  0  0  0
   13.1175   37.6307   34.5698 C   0  0  0  0  0  0  0  0  0  0  0  0
   15.2065   35.6139   32.6746 N   0  0  0  0  0  0  0  0  0  0  0  0
   14.6731   36.2267   34.9190 C   0  0  0  0  0  0  0  0  0  0  0  0
   13.8224   37.0450   35.5792 N   0  0  0  0  0  0  0  0  0  0  0  0
   16.1640   34.7596   33.1551 C   0  0  0  0  0  0  0  0  0  0  0  0
   15.6517   35.3489   35.4136 C   0  0  0  0  0  0  0  0  0  0  0  0
   16.3795   34.6310   34.5046 N   0  0  0  0  0  0  0  0  0  0  0  0
   15.9006   35.1931   36.8094 N   0  0  0  0  0  0  0  0  0  0  0  0
    9.8129   45.0030   32.1503 H   0  0  0  0  0  0  0  0  0  0  0  0
   10.9068   46.9083   32.9436 H   0  0  0  0  0  0  0  0  0  0  0  0
   11.1178   46.2823   34.4935 H   0  0  0  0  0  0  0  0  0  0  0  0
    8.5339   46.7524   33.5515 H   0  0  0  0  0  0  0  0  0  0  0  0
    8.7266   45.6828   34.9774 H   0  0  0  0  0  0  0  0  0  0  0  0
    5.9740   42.6730   33.0419 H   0  0  0  0  0  0  0  0  0  0  0  0
    5.5586   42.4757   34.7808 H   0  0  0  0  0  0  0  0  0  0  0  0
    5.0035   45.4701   35.3443 H   0  0  0  0  0  0  0  0  0  0  0  0
    1.5364   44.2286   32.0265 H   0  0  0  0  0  0  0  0  0  0  0  0
    3.0086   46.8701   35.0533 H   0  0  0  0  0  0  0  0  0  0  0  0
    1.2915   46.2695   33.3771 H   0  0  0  0  0  0  0  0  0  0  0  0
   11.3825   41.5525   31.4747 H   0  0  0  0  0  0  0  0  0  0  0  0
    9.8255   40.7190   31.7591 H   0  0  0  0  0  0  0  0  0  0  0  0
   11.7317   39.5338   30.3518 H   0  0  0  0  0  0  0  0  0  0  0  0
   10.1214   38.2683   32.6412 H   0  0  0  0  0  0  0  0  0  0  0  0
   13.6881   37.4706   31.2318 H   0  0  0  0  0  0  0  0  0  0  0  0
   10.0255   38.1751   29.7656 H   0  0  0  0  0  0  0  0  0  0  0  0
   11.2795   36.3123   32.4915 H   0  0  0  0  0  0  0  0  0  0  0  0
   11.9870   36.9099   29.7714 H   0  0  0  0  0  0  0  0  0  0  0  0
   12.3365   38.3595   34.7453 H   0  0  0  0  0  0  0  0  0  0  0  0
   16.7576   34.1794   32.4622 H   0  0  0  0  0  0  0  0  0  0  0  0
   15.3532   35.7351   37.5143 H   0  0  0  0  0  0  0  0  0  0  0  0
   16.6368   34.5316   37.1418 H   0  0  0  0  0  0  0  0  0  0  0  0
  1  2  2  0
  1  3  1  0
  3  4  1  0
  4  5  1  0
  6  1  1  0
  7  6  1  0
  6  8  1  0
  8  9  1  0
  9 10  1  0
  9 11  2  0
 10 12  1  0
 12 13  1  0
 13 14  2  0
 15 13  1  0
 14 16  1  0
 14 17  1  0
 18 15  2  0
 16 19  1  0
 16 20  2  0
 17 21  2  0
 21 18  1  0
  4 22  2  0
  4 23  1  0
 24 23  1  0
 24 25  1  0
 25 26  1  0
 25 27  1  0
 26 28  1  0
 27 29  1  0
 27 30  1  0
 30 28  1  0
 28 31  1  0
 30 32  1  0
 33 31  1  0
 34 31  1  0
 35 33  2  0
 33 36  1  0
 37 34  2  0
 38 35  1  0
 36 39  2  0
 36 37  1  0
 40 38  2  0
 40 39  1  0
 39 41  1  0
  6 42  1  6
  7 43  1  0
  7 44  1  0
  8 45  1  0
  8 46  1  0
 12 47  1  0
 12 48  1  0
 15 49  1  0
 17 50  1  0
 18 51  1  0
 21 52  1  0
 24 53  1  0
 24 54  1  0
 25 55  1  0
 27 56  1  0
 28 57  1  0
 29 58  1  0
 30 59  1  0
 32 60  1  0
 34 61  1  0
 38 62  1  0
 41 63  1  0
 41 64  1  0
M  CHG  3   5  -1  16   1  19  -1
M  END
>  <EmbedRMS>  (38) 
0.08710070179702847

$$$$

     RDKit          3D

 64 67  0  0  0  0  0  0  0  0999 V2000
   10.2898   43.7673   33.8032 C   0  0  0  0  0  0  0  0  0  0  0  0
   11.4120   43.5788   34.3579 O   0  0  0  0  0  0  0  0  0  0  0  0
    9.3672   42.7297   33.7002 O   0  0  0  0  0  0  0  0  0  0  0  0
    9.8841   41.2326   34.2849 P   0  0  0  0  0  5  0  0  0  0  0  0
   10.3680   41.4680   35.8739 O   0  0  0  0  0  1  0  0  0  0  0  0
    9.9674   45.1106   33.2393 C   0  0  2  0  0  0  0  0  0  0  0  0
   11.0570   46.0572   33.4883 N   0  0  0  0  0  0  0  0  0  0  0  0
    8.6343   45.6639   33.7797 C   0  0  0  0  0  0  0  0  0  0  0  0
    8.6063   45.7601   35.2770 C   0  0  0  0  0  0  0  0  0  0  0  0
    8.4895   44.5902   36.0309 O   0  0  0  0  0  0  0  0  0  0  0  0
    8.7051   46.8841   35.8404 O   0  0  0  0  0  0  0  0  0  0  0  0
    8.4121   44.5805   37.4516 C   0  0  0  0  0  0  0  0  0  0  0  0
    8.3808   43.1542   37.9426 C   0  0  0  0  0  0  0  0  0  0  0  0
    7.4645   42.1978   37.4266 C   0  0  0  0  0  0  0  0  0  0  0  0
    9.3240   42.7504   38.9058 C   0  0  0  0  0  0  0  0  0  0  0  0
    6.4615   42.5533   36.4577 N   0  0  0  0  0  4  0  0  0  0  0  0
    7.5518   40.8623   37.8605 C   0  0  0  0  0  0  0  0  0  0  0  0
    9.3813   41.4238   39.3348 C   0  0  0  0  0  0  0  0  0  0  0  0
    5.7737   43.7398   36.5629 O   0  0  0  0  0  1  0  0  0  0  0  0
    6.0952   41.7214   35.6018 O   0  0  0  0  0  0  0  0  0  0  0  0
    8.5016   40.4804   38.8084 C   0  0  0  0  0  0  0  0  0  0  0  0
    8.8061   40.1904   34.2104 O   0  0  0  0  0  0  0  0  0  0  0  0
   11.2367   40.7882   33.3695 O   0  0  0  0  0  0  0  0  0  0  0  0
   10.9185   40.6891   31.9955 C   0  0  0  0  0  0  0  0  0  0  0  0
   11.5167   39.3801   31.4399 C   0  0  0  0  0  0  0  0  0  0  0  0
   12.7476   39.0862   32.0734 O   0  0  0  0  0  0  0  0  0  0  0  0
   10.6029   38.1890   31.6667 C   0  0  0  0  0  0  0  0  0  0  0  0
   12.9334   37.6798   32.0280 C   0  0  0  0  0  0  0  0  0  0  0  0
    9.6395   38.0776   30.6457 O   0  0  0  0  0  0  0  0  0  0  0  0
   11.5739   37.0154   31.7057 C   0  0  0  0  0  0  0  0  0  0  0  0
   13.4902   37.2179   33.3231 N   0  0  0  0  0  0  0  0  0  0  0  0
   11.6211   36.3376   30.4695 O   0  0  0  0  0  0  0  0  0  0  0  0
   14.4761   36.3274   33.5725 C   0  0  0  0  0  0  0  0  0  0  0  0
   13.1177   37.6317   34.5685 C   0  0  0  0  0  0  0  0  0  0  0  0
   15.2063   35.6140   32.6737 N   0  0  0  0  0  0  0  0  0  0  0  0
   14.6733   36.2278   34.9180 C   0  0  0  0  0  0  0  0  0  0  0  0
   13.8225   37.0459   35.5780 N   0  0  0  0  0  0  0  0  0  0  0  0
   16.1635   34.7595   33.1546 C   0  0  0  0  0  0  0  0  0  0  0  0
   15.6515   35.3495   35.4129 C   0  0  0  0  0  0  0  0  0  0  0  0
   16.3790   34.6311   34.5041 N   0  0  0  0  0  0  0  0  0  0  0  0
   15.9001   35.1936   36.8088 N   0  0  0  0  0  0  0  0  0  0  0  0
    9.8570   44.9923   32.1389 H   0  0  0  0  0  0  0  0  0  0  0  0
   11.2648   46.1120   34.5127 H   0  0  0  0  0  0  0  0  0  0  0  0
   11.9204   45.7280   32.9969 H   0  0  0  0  0  0  0  0  0  0  0  0
    7.8015   45.0039   33.4531 H   0  0  0  0  0  0  0  0  0  0  0  0
    8.4480   46.6667   33.3365 H   0  0  0  0  0  0  0  0  0  0  0  0
    7.4997   45.1148   37.7901 H   0  0  0  0  0  0  0  0  0  0  0  0
    9.2922   45.1219   37.8634 H   0  0  0  0  0  0  0  0  0  0  0  0
   10.0306   43.4605   39.3174 H   0  0  0  0  0  0  0  0  0  0  0  0
    6.8702   40.1155   37.4732 H   0  0  0  0  0  0  0  0  0  0  0  0
   10.1160   41.1250   40.0713 H   0  0  0  0  0  0  0  0  0  0  0  0
    8.5527   39.4508   39.1383 H   0  0  0  0  0  0  0  0  0  0  0  0
    9.8307   40.7392   31.7552 H   0  0  0  0  0  0  0  0  0  0  0  0
   11.4004   41.5438   31.4746 H   0  0  0  0  0  0  0  0  0  0  0  0
   11.6977   39.5047   30.3472 H   0  0  0  0  0  0  0  0  0  0  0  0
   10.1088   38.2629   32.6650 H   0  0  0  0  0  0  0  0  0  0  0  0
   13.6655   37.4543   31.2208 H   0  0  0  0  0  0  0  0  0  0  0  0
    8.8960   38.6893   30.8856 H   0  0  0  0  0  0  0  0  0  0  0  0
   11.2846   36.3059   32.5175 H   0  0  0  0  0  0  0  0  0  0  0  0
   10.8524   35.7094   30.4590 H   0  0  0  0  0  0  0  0  0  0  0  0
   12.3351   38.3588   34.7441 H   0  0  0  0  0  0  0  0  0  0  0  0
   16.7569   34.1789   32.4619 H   0  0  0  0  0  0  0  0  0  0  0  0
   16.6359   34.5317   37.1413 H   0  0  0  0  0  0  0  0  0  0  0  0
   15.3528   35.7359   37.5136 H   0  0  0  0  0  0  0  0  0  0  0  0
  1  2  2  0
  1  3  1  0
  3  4  1  0
  4  5  1  0
  6  1  1  0
  7  6  1  0
  6  8  1  0
  8  9  1  0
  9 10  1  0
  9 11  2  0
 10 12  1  0
 12 13  1  0
 13 14  2  0
 15 13  1  0
 14 16  1  0
 14 17  1  0
 18 15  2  0
 16 19  1  0
 16 20  2  0
 17 21  2  0
 21 18  1  0
  4 22  2  0
  4 23  1  0
 24 23  1  0
 24 25  1  0
 25 26  1  0
 25 27  1  0
 26 28  1  0
 27 29  1  0
 27 30  1  0
 30 28  1  0
 28 31  1  0
 30 32  1  0
 33 31  1  0
 34 31  1  0
 35 33  2  0
 33 36  1  0
 37 34  2  0
 38 35  1  0
 36 39  2  0
 36 37  1  0
 40 38  2  0
 40 39  1  0
 39 41  1  0
  6 42  1  6
  7 43  1  0
  7 44  1  0
  8 45  1  0
  8 46  1  0
 12 47  1  0
 12 48  1  0
 15 49  1  0
 17 50  1  0
 18 51  1  0
 21 52  1  0
 24 53  1  0
 24 54  1  0
 25 55  1  0
 27 56  1  0
 28 57  1  0
 29 58  1  0
 30 59  1  0
 32 60  1  0
 34 61  1  0
 38 62  1  0
 41 63  1  0
 41 64  1  0
M  CHG  3   5  -1  16   1  19  -1
M  END
>  <EmbedRMS>  (39) 
0.0900406041994631

$$$$

     RDKit          3D

 64 67  0  0  0  0  0  0  0  0999 V2000
   10.2813   43.7727   33.8027 C   0  0  0  0  0  0  0  0  0  0  0  0
   11.4019   43.5891   34.3640 O   0  0  0  0  0  0  0  0  0  0  0  0
    9.3643   42.7297   33.6985 O   0  0  0  0  0  0  0  0  0  0  0  0
    9.8873   41.2340   34.2841 P   0  0  0  0  0  5  0  0  0  0  0  0
   10.3698   41.4725   35.8735 O   0  0  0  0  0  1  0  0  0  0  0  0
    9.9644   45.1100   33.2235 C   0  0  2  0  0  0  0  0  0  0  0  0
   11.0682   46.0322   33.4989 N   0  0  0  0  0  0  0  0  0  0  0  0
    8.6475   45.6647   33.8115 C   0  0  0  0  0  0  0  0  0  0  0  0
    7.4528   45.1414   33.0728 C   0  0  0  0  0  0  0  0  0  0  0  0
    6.6439   44.1593   33.6556 O   0  0  0  0  0  0  0  0  0  0  0  0
    7.1879   45.5958   31.9268 O   0  0  0  0  0  0  0  0  0  0  0  0
    5.5040   43.5998   33.0038 C   0  0  0  0  0  0  0  0  0  0  0  0
    5.9356   42.5703   31.9847 C   0  0  0  0  0  0  0  0  0  0  0  0
    5.9834   42.8355   30.5913 C   0  0  0  0  0  0  0  0  0  0  0  0
    6.4030   41.3333   32.4608 C   0  0  0  0  0  0  0  0  0  0  0  0
    5.4583   44.0491   30.0345 N   0  0  0  0  0  4  0  0  0  0  0  0
    6.5357   41.8745   29.7262 C   0  0  0  0  0  0  0  0  0  0  0  0
    6.9226   40.3800   31.5835 C   0  0  0  0  0  0  0  0  0  0  0  0
    4.1523   44.4045   30.2796 O   0  0  0  0  0  1  0  0  0  0  0  0
    6.0795   44.6330   29.1226 O   0  0  0  0  0  0  0  0  0  0  0  0
    7.0012   40.6552   30.2202 C   0  0  0  0  0  0  0  0  0  0  0  0
    8.8160   40.1853   34.2162 O   0  0  0  0  0  0  0  0  0  0  0  0
   11.2384   40.7920   33.3659 O   0  0  0  0  0  0  0  0  0  0  0  0
   10.9147   40.6863   31.9932 C   0  0  0  0  0  0  0  0  0  0  0  0
   11.5159   39.3781   31.4394 C   0  0  0  0  0  0  0  0  0  0  0  0
   12.7466   39.0857   32.0738 O   0  0  0  0  0  0  0  0  0  0  0  0
   10.6035   38.1879   31.6667 C   0  0  0  0  0  0  0  0  0  0  0  0
   12.9337   37.6793   32.0282 C   0  0  0  0  0  0  0  0  0  0  0  0
    9.6377   38.0929   30.6476 O   0  0  0  0  0  0  0  0  0  0  0  0
   11.5748   37.0137   31.7059 C   0  0  0  0  0  0  0  0  0  0  0  0
   13.4905   37.2178   33.3232 N   0  0  0  0  0  0  0  0  0  0  0  0
   11.6221   36.3373   30.4689 O   0  0  0  0  0  0  0  0  0  0  0  0
   14.4762   36.3273   33.5726 C   0  0  0  0  0  0  0  0  0  0  0  0
   13.1179   37.6316   34.5685 C   0  0  0  0  0  0  0  0  0  0  0  0
   15.2064   35.6138   32.6738 N   0  0  0  0  0  0  0  0  0  0  0  0
   14.6734   36.2277   34.9181 C   0  0  0  0  0  0  0  0  0  0  0  0
   13.8226   37.0458   35.5780 N   0  0  0  0  0  0  0  0  0  0  0  0
   16.1637   34.7594   33.1546 C   0  0  0  0  0  0  0  0  0  0  0  0
   15.6516   35.3494   35.4130 C   0  0  0  0  0  0  0  0  0  0  0  0
   16.3791   34.6310   34.5041 N   0  0  0  0  0  0  0  0  0  0  0  0
   15.9002   35.1935   36.8089 N   0  0  0  0  0  0  0  0  0  0  0  0
    9.8676   44.9972   32.1190 H   0  0  0  0  0  0  0  0  0  0  0  0
   10.8432   46.9583   33.0675 H   0  0  0  0  0  0  0  0  0  0  0  0
   11.9181   45.6953   32.9888 H   0  0  0  0  0  0  0  0  0  0  0  0
    8.6285   46.7733   33.7318 H   0  0  0  0  0  0  0  0  0  0  0  0
    8.5642   45.4183   34.8930 H   0  0  0  0  0  0  0  0  0  0  0  0
    4.8730   43.1021   33.7707 H   0  0  0  0  0  0  0  0  0  0  0  0
    4.8835   44.4091   32.5743 H   0  0  0  0  0  0  0  0  0  0  0  0
    6.3751   41.1126   33.5206 H   0  0  0  0  0  0  0  0  0  0  0  0
    6.5838   42.0631   28.6610 H   0  0  0  0  0  0  0  0  0  0  0  0
    7.2800   39.4319   31.9639 H   0  0  0  0  0  0  0  0  0  0  0  0
    7.4157   39.9193   29.5434 H   0  0  0  0  0  0  0  0  0  0  0  0
    9.8256   40.7244   31.7570 H   0  0  0  0  0  0  0  0  0  0  0  0
   11.3878   41.5424   31.4666 H   0  0  0  0  0  0  0  0  0  0  0  0
   11.6978   39.5022   30.3468 H   0  0  0  0  0  0  0  0  0  0  0  0
   10.1074   38.2791   32.6622 H   0  0  0  0  0  0  0  0  0  0  0  0
   13.6660   37.4545   31.2210 H   0  0  0  0  0  0  0  0  0  0  0  0
    8.9697   37.4273   30.9571 H   0  0  0  0  0  0  0  0  0  0  0  0
   11.2844   36.3053   32.5181 H   0  0  0  0  0  0  0  0  0  0  0  0
   10.8652   35.6949   30.4650 H   0  0  0  0  0  0  0  0  0  0  0  0
   12.3352   38.3586   34.7440 H   0  0  0  0  0  0  0  0  0  0  0  0
   16.7570   34.1787   32.4619 H   0  0  0  0  0  0  0  0  0  0  0  0
   16.6360   34.5316   37.1414 H   0  0  0  0  0  0  0  0  0  0  0  0
   15.3530   35.7358   37.5137 H   0  0  0  0  0  0  0  0  0  0  0  0
  1  2  2  0
  1  3  1  0
  3  4  1  0
  4  5  1  0
  6  1  1  0
  7  6  1  0
  6  8  1  0
  8  9  1  0
  9 10  1  0
  9 11  2  0
 10 12  1  0
 12 13  1  0
 13 14  2  0
 15 13  1  0
 14 16  1  0
 14 17  1  0
 18 15  2  0
 16 19  1  0
 16 20  2  0
 17 21  2  0
 21 18  1  0
  4 22  2  0
  4 23  1  0
 24 23  1  0
 24 25  1  0
 25 26  1  0
 25 27  1  0
 26 28  1  0
 27 29  1  0
 27 30  1  0
 30 28  1  0
 28 31  1  0
 30 32  1  0
 33 31  1  0
 34 31  1  0
 35 33  2  0
 33 36  1  0
 37 34  2  0
 38 35  1  0
 36 39  2  0
 36 37  1  0
 40 38  2  0
 40 39  1  0
 39 41  1  0
  6 42  1  6
  7 43  1  0
  7 44  1  0
  8 45  1  0
  8 46  1  0
 12 47  1  0
 12 48  1  0
 15 49  1  0
 17 50  1  0
 18 51  1  0
 21 52  1  0
 24 53  1  0
 24 54  1  0
 25 55  1  0
 27 56  1  0
 28 57  1  0
 29 58  1  0
 30 59  1  0
 32 60  1  0
 34 61  1  0
 38 62  1  0
 41 63  1  0
 41 64  1  0
M  CHG  3   5  -1  16   1  19  -1
M  END
>  <EmbedRMS>  (40) 
0.08814573897518738

$$$$

     RDKit          3D

 64 67  0  0  0  0  0  0  0  0999 V2000
   10.2845   43.7741   33.8067 C   0  0  0  0  0  0  0  0  0  0  0  0
   11.4068   43.5901   34.3637 O   0  0  0  0  0  0  0  0  0  0  0  0
    9.3680   42.7310   33.6987 O   0  0  0  0  0  0  0  0  0  0  0  0
    9.8859   41.2341   34.2835 P   0  0  0  0  0  5  0  0  0  0  0  0
   10.3663   41.4697   35.8740 O   0  0  0  0  0  1  0  0  0  0  0  0
    9.9492   45.1163   33.2551 C   0  0  2  0  0  0  0  0  0  0  0  0
   11.0754   46.0285   33.4730 N   0  0  0  0  0  0  0  0  0  0  0  0
    8.6774   45.6520   33.9429 C   0  0  0  0  0  0  0  0  0  0  0  0
    8.1948   46.9143   33.2993 C   0  0  0  0  0  0  0  0  0  0  0  0
    8.4988   48.1453   33.8901 O   0  0  0  0  0  0  0  0  0  0  0  0
    7.5513   46.8580   32.2162 O   0  0  0  0  0  0  0  0  0  0  0  0
    8.2708   49.4011   33.2545 C   0  0  0  0  0  0  0  0  0  0  0  0
    9.2736   49.6204   32.1462 C   0  0  0  0  0  0  0  0  0  0  0  0
   10.6116   50.0303   32.4012 C   0  0  0  0  0  0  0  0  0  0  0  0
    8.8607   49.4123   30.8174 C   0  0  0  0  0  0  0  0  0  0  0  0
   11.1068   50.2506   33.7354 N   0  0  0  0  0  4  0  0  0  0  0  0
   11.4777   50.2473   31.3144 C   0  0  0  0  0  0  0  0  0  0  0  0
    9.7421   49.6188   29.7561 C   0  0  0  0  0  0  0  0  0  0  0  0
   12.1124   51.1648   33.9512 O   0  0  0  0  0  1  0  0  0  0  0  0
   10.7597   49.5108   34.6782 O   0  0  0  0  0  0  0  0  0  0  0  0
   11.0468   50.0389   30.0038 C   0  0  0  0  0  0  0  0  0  0  0  0
    8.8081   40.1914   34.2081 O   0  0  0  0  0  0  0  0  0  0  0  0
   11.2374   40.7899   33.3676 O   0  0  0  0  0  0  0  0  0  0  0  0
   10.9156   40.6881   31.9946 C   0  0  0  0  0  0  0  0  0  0  0  0
   11.5262   39.3870   31.4363 C   0  0  0  0  0  0  0  0  0  0  0  0
   12.7492   39.0892   32.0818 O   0  0  0  0  0  0  0  0  0  0  0  0
   10.6123   38.1893   31.6461 C   0  0  0  0  0  0  0  0  0  0  0  0
   12.9374   37.6826   32.0301 C   0  0  0  0  0  0  0  0  0  0  0  0
    9.6150   38.0838   30.6538 O   0  0  0  0  0  0  0  0  0  0  0  0
   11.5793   37.0136   31.7014 C   0  0  0  0  0  0  0  0  0  0  0  0
   13.4906   37.2169   33.3242 N   0  0  0  0  0  0  0  0  0  0  0  0
   11.6216   36.3252   30.4725 O   0  0  0  0  0  0  0  0  0  0  0  0
   14.4763   36.3266   33.5731 C   0  0  0  0  0  0  0  0  0  0  0  0
   13.1182   37.6308   34.5694 C   0  0  0  0  0  0  0  0  0  0  0  0
   15.2065   35.6137   32.6740 N   0  0  0  0  0  0  0  0  0  0  0  0
   14.6735   36.2270   34.9185 C   0  0  0  0  0  0  0  0  0  0  0  0
   13.8229   37.0451   35.5787 N   0  0  0  0  0  0  0  0  0  0  0  0
   16.1639   34.7593   33.1547 C   0  0  0  0  0  0  0  0  0  0  0  0
   15.6519   35.3489   35.4132 C   0  0  0  0  0  0  0  0  0  0  0  0
   16.3795   34.6308   34.5042 N   0  0  0  0  0  0  0  0  0  0  0  0
   15.9006   35.1931   36.8090 N   0  0  0  0  0  0  0  0  0  0  0  0
    9.7632   45.0054   32.1625 H   0  0  0  0  0  0  0  0  0  0  0  0
   10.8502   46.9516   33.0374 H   0  0  0  0  0  0  0  0  0  0  0  0
   11.8983   45.6726   32.9327 H   0  0  0  0  0  0  0  0  0  0  0  0
    7.8620   44.8982   33.8802 H   0  0  0  0  0  0  0  0  0  0  0  0
    8.8811   45.8406   35.0199 H   0  0  0  0  0  0  0  0  0  0  0  0
    7.2263   49.4482   32.8748 H   0  0  0  0  0  0  0  0  0  0  0  0
    8.3641   50.2118   34.0070 H   0  0  0  0  0  0  0  0  0  0  0  0
    7.8482   49.0960   30.5990 H   0  0  0  0  0  0  0  0  0  0  0  0
   12.4994   50.5632   31.4829 H   0  0  0  0  0  0  0  0  0  0  0  0
    9.4106   49.4569   28.7385 H   0  0  0  0  0  0  0  0  0  0  0  0
   11.7278   50.2014   29.1783 H   0  0  0  0  0  0  0  0  0  0  0  0
    9.8255   40.7180   31.7577 H   0  0  0  0  0  0  0  0  0  0  0  0
   11.3830   41.5502   31.4724 H   0  0  0  0  0  0  0  0  0  0  0  0
   11.7292   39.5285   30.3502 H   0  0  0  0  0  0  0  0  0  0  0  0
   10.1140   38.2719   32.6379 H   0  0  0  0  0  0  0  0  0  0  0  0
   13.6726   37.4635   31.2240 H   0  0  0  0  0  0  0  0  0  0  0  0
   10.0535   38.1084   29.7638 H   0  0  0  0  0  0  0  0  0  0  0  0
   11.2646   36.3134   32.5107 H   0  0  0  0  0  0  0  0  0  0  0  0
   12.1549   35.5031   30.6316 H   0  0  0  0  0  0  0  0  0  0  0  0
   12.3362   38.3586   34.7450 H   0  0  0  0  0  0  0  0  0  0  0  0
   16.7573   34.1788   32.4619 H   0  0  0  0  0  0  0  0  0  0  0  0
   15.3533   35.7353   37.5139 H   0  0  0  0  0  0  0  0  0  0  0  0
   16.6366   34.5314   37.1415 H   0  0  0  0  0  0  0  0  0  0  0  0
  1  2  2  0
  1  3  1  0
  3  4  1  0
  4  5  1  0
  6  1  1  0
  7  6  1  0
  6  8  1  0
  8  9  1  0
  9 10  1  0
  9 11  2  0
 10 12  1  0
 12 13  1  0
 13 14  2  0
 15 13  1  0
 14 16  1  0
 14 17  1  0
 18 15  2  0
 16 19  1  0
 16 20  2  0
 17 21  2  0
 21 18  1  0
  4 22  2  0
  4 23  1  0
 24 23  1  0
 24 25  1  0
 25 26  1  0
 25 27  1  0
 26 28  1  0
 27 29  1  0
 27 30  1  0
 30 28  1  0
 28 31  1  0
 30 32  1  0
 33 31  1  0
 34 31  1  0
 35 33  2  0
 33 36  1  0
 37 34  2  0
 38 35  1  0
 36 39  2  0
 36 37  1  0
 40 38  2  0
 40 39  1  0
 39 41  1  0
  6 42  1  6
  7 43  1  0
  7 44  1  0
  8 45  1  0
  8 46  1  0
 12 47  1  0
 12 48  1  0
 15 49  1  0
 17 50  1  0
 18 51  1  0
 21 52  1  0
 24 53  1  0
 24 54  1  0
 25 55  1  0
 27 56  1  0
 28 57  1  0
 29 58  1  0
 30 59  1  0
 32 60  1  0
 34 61  1  0
 38 62  1  0
 41 63  1  0
 41 64  1  0
M  CHG  3   5  -1  16   1  19  -1
M  END
>  <EmbedRMS>  (41) 
0.08801118180935691

$$$$

     RDKit          3D

 64 67  0  0  0  0  0  0  0  0999 V2000
   10.2831   43.7754   33.8073 C   0  0  0  0  0  0  0  0  0  0  0  0
   11.4086   43.5917   34.3577 O   0  0  0  0  0  0  0  0  0  0  0  0
    9.3669   42.7318   33.7011 O   0  0  0  0  0  0  0  0  0  0  0  0
    9.8865   41.2345   34.2838 P   0  0  0  0  0  5  0  0  0  0  0  0
   10.3666   41.4695   35.8744 O   0  0  0  0  0  1  0  0  0  0  0  0
    9.9534   45.1115   33.2436 C   0  0  2  0  0  0  0  0  0  0  0  0
   11.0724   46.0262   33.4850 N   0  0  0  0  0  0  0  0  0  0  0  0
    8.6388   45.6420   33.8554 C   0  0  0  0  0  0  0  0  0  0  0  0
    8.2433   46.9618   33.2686 C   0  0  0  0  0  0  0  0  0  0  0  0
    8.2541   48.1056   34.0753 O   0  0  0  0  0  0  0  0  0  0  0  0
    7.9077   47.0326   32.0545 O   0  0  0  0  0  0  0  0  0  0  0  0
    7.9409   49.4085   33.5837 C   0  0  0  0  0  0  0  0  0  0  0  0
    9.0530   49.9379   32.7052 C   0  0  0  0  0  0  0  0  0  0  0  0
    8.7947   50.6471   31.5035 C   0  0  0  0  0  0  0  0  0  0  0  0
   10.3869   49.7237   33.0998 C   0  0  0  0  0  0  0  0  0  0  0  0
    7.4592   51.0008   31.1095 N   0  0  0  0  0  4  0  0  0  0  0  0
    9.8738   51.0380   30.6906 C   0  0  0  0  0  0  0  0  0  0  0  0
   11.4451   50.1352   32.2886 C   0  0  0  0  0  0  0  0  0  0  0  0
    6.5978   51.5646   32.0224 O   0  0  0  0  0  1  0  0  0  0  0  0
    7.1444   51.0061   29.9014 O   0  0  0  0  0  0  0  0  0  0  0  0
   11.1888   50.7800   31.0801 C   0  0  0  0  0  0  0  0  0  0  0  0
    8.8091   40.1914   34.2077 O   0  0  0  0  0  0  0  0  0  0  0  0
   11.2390   40.7910   33.3682 O   0  0  0  0  0  0  0  0  0  0  0  0
   10.9194   40.6896   31.9946 C   0  0  0  0  0  0  0  0  0  0  0  0
   11.5171   39.3801   31.4397 C   0  0  0  0  0  0  0  0  0  0  0  0
   12.7478   39.0861   32.0734 O   0  0  0  0  0  0  0  0  0  0  0  0
   10.6031   38.1891   31.6666 C   0  0  0  0  0  0  0  0  0  0  0  0
   12.9335   37.6796   32.0279 C   0  0  0  0  0  0  0  0  0  0  0  0
    9.6397   38.0777   30.6457 O   0  0  0  0  0  0  0  0  0  0  0  0
   11.5739   37.0154   31.7057 C   0  0  0  0  0  0  0  0  0  0  0  0
   13.4903   37.2178   33.3231 N   0  0  0  0  0  0  0  0  0  0  0  0
   11.6211   36.3376   30.4695 O   0  0  0  0  0  0  0  0  0  0  0  0
   14.4761   36.3273   33.5725 C   0  0  0  0  0  0  0  0  0  0  0  0
   13.1178   37.6316   34.5684 C   0  0  0  0  0  0  0  0  0  0  0  0
   15.2063   35.6139   32.6737 N   0  0  0  0  0  0  0  0  0  0  0  0
   14.6734   36.2277   34.9179 C   0  0  0  0  0  0  0  0  0  0  0  0
   13.8225   37.0459   35.5779 N   0  0  0  0  0  0  0  0  0  0  0  0
   16.1636   34.7594   33.1546 C   0  0  0  0  0  0  0  0  0  0  0  0
   15.6515   35.3494   35.4129 C   0  0  0  0  0  0  0  0  0  0  0  0
   16.3791   34.6311   34.5041 N   0  0  0  0  0  0  0  0  0  0  0  0
   15.9001   35.1935   36.8088 N   0  0  0  0  0  0  0  0  0  0  0  0
    9.8205   44.9848   32.1459 H   0  0  0  0  0  0  0  0  0  0  0  0
   10.9591   46.8672   32.8745 H   0  0  0  0  0  0  0  0  0  0  0  0
   11.0582   46.3520   34.4796 H   0  0  0  0  0  0  0  0  0  0  0  0
    8.7463   45.7445   34.9576 H   0  0  0  0  0  0  0  0  0  0  0  0
    7.8165   44.9186   33.6640 H   0  0  0  0  0  0  0  0  0  0  0  0
    7.8155   50.0948   34.4469 H   0  0  0  0  0  0  0  0  0  0  0  0
    6.9723   49.3539   33.0451 H   0  0  0  0  0  0  0  0  0  0  0  0
   10.6095   49.2182   34.0315 H   0  0  0  0  0  0  0  0  0  0  0  0
    9.6959   51.5702   29.7646 H   0  0  0  0  0  0  0  0  0  0  0  0
   12.4661   49.9489   32.5961 H   0  0  0  0  0  0  0  0  0  0  0  0
   12.0111   51.0956   30.4510 H   0  0  0  0  0  0  0  0  0  0  0  0
   11.4008   41.5437   31.4721 H   0  0  0  0  0  0  0  0  0  0  0  0
    9.8315   40.7396   31.7549 H   0  0  0  0  0  0  0  0  0  0  0  0
   11.6983   39.5041   30.3470 H   0  0  0  0  0  0  0  0  0  0  0  0
   10.1090   38.2632   32.6650 H   0  0  0  0  0  0  0  0  0  0  0  0
   13.6656   37.4541   31.2207 H   0  0  0  0  0  0  0  0  0  0  0  0
    8.8965   38.6900   30.8852 H   0  0  0  0  0  0  0  0  0  0  0  0
   11.2846   36.3060   32.5175 H   0  0  0  0  0  0  0  0  0  0  0  0
   10.8523   35.7094   30.4590 H   0  0  0  0  0  0  0  0  0  0  0  0
   12.3353   38.3588   34.7439 H   0  0  0  0  0  0  0  0  0  0  0  0
   16.7570   34.1788   32.4619 H   0  0  0  0  0  0  0  0  0  0  0  0
   16.6360   34.5317   37.1414 H   0  0  0  0  0  0  0  0  0  0  0  0
   15.3529   35.7359   37.5136 H   0  0  0  0  0  0  0  0  0  0  0  0
  1  2  2  0
  1  3  1  0
  3  4  1  0
  4  5  1  0
  6  1  1  0
  7  6  1  0
  6  8  1  0
  8  9  1  0
  9 10  1  0
  9 11  2  0
 10 12  1  0
 12 13  1  0
 13 14  2  0
 15 13  1  0
 14 16  1  0
 14 17  1  0
 18 15  2  0
 16 19  1  0
 16 20  2  0
 17 21  2  0
 21 18  1  0
  4 22  2  0
  4 23  1  0
 24 23  1  0
 24 25  1  0
 25 26  1  0
 25 27  1  0
 26 28  1  0
 27 29  1  0
 27 30  1  0
 30 28  1  0
 28 31  1  0
 30 32  1  0
 33 31  1  0
 34 31  1  0
 35 33  2  0
 33 36  1  0
 37 34  2  0
 38 35  1  0
 36 39  2  0
 36 37  1  0
 40 38  2  0
 40 39  1  0
 39 41  1  0
  6 42  1  6
  7 43  1  0
  7 44  1  0
  8 45  1  0
  8 46  1  0
 12 47  1  0
 12 48  1  0
 15 49  1  0
 17 50  1  0
 18 51  1  0
 21 52  1  0
 24 53  1  0
 24 54  1  0
 25 55  1  0
 27 56  1  0
 28 57  1  0
 29 58  1  0
 30 59  1  0
 32 60  1  0
 34 61  1  0
 38 62  1  0
 41 63  1  0
 41 64  1  0
M  CHG  3   5  -1  16   1  19  -1
M  END
>  <EmbedRMS>  (42) 
0.08913985625961288

$$$$

     RDKit          3D

 64 67  0  0  0  0  0  0  0  0999 V2000
   10.2863   43.7709   33.8098 C   0  0  0  0  0  0  0  0  0  0  0  0
   11.4101   43.5818   34.3616 O   0  0  0  0  0  0  0  0  0  0  0  0
    9.3669   42.7308   33.7020 O   0  0  0  0  0  0  0  0  0  0  0  0
    9.8847   41.2330   34.2845 P   0  0  0  0  0  5  0  0  0  0  0  0
   10.3648   41.4678   35.8752 O   0  0  0  0  0  1  0  0  0  0  0  0
    9.9607   45.1124   33.2471 C   0  0  2  0  0  0  0  0  0  0  0  0
   11.0654   46.0481   33.4750 N   0  0  0  0  0  0  0  0  0  0  0  0
    8.6648   45.6563   33.8712 C   0  0  0  0  0  0  0  0  0  0  0  0
    8.2770   46.9644   33.2555 C   0  0  0  0  0  0  0  0  0  0  0  0
    8.7170   48.1567   33.8407 O   0  0  0  0  0  0  0  0  0  0  0  0
    7.5907   46.9799   32.1972 O   0  0  0  0  0  0  0  0  0  0  0  0
    8.3751   49.4470   33.3379 C   0  0  0  0  0  0  0  0  0  0  0  0
    6.9059   49.7348   33.5474 C   0  0  0  0  0  0  0  0  0  0  0  0
    6.2825   49.6057   34.8179 C   0  0  0  0  0  0  0  0  0  0  0  0
    6.1277   50.1054   32.4352 C   0  0  0  0  0  0  0  0  0  0  0  0
    7.0271   49.2498   35.9973 N   0  0  0  0  0  4  0  0  0  0  0  0
    4.8954   49.8176   34.9242 C   0  0  0  0  0  0  0  0  0  0  0  0
    4.7562   50.3261   32.5665 C   0  0  0  0  0  0  0  0  0  0  0  0
    8.2780   49.7750   36.2233 O   0  0  0  0  0  1  0  0  0  0  0  0
    6.4823   48.5880   36.9049 O   0  0  0  0  0  0  0  0  0  0  0  0
    4.1405   50.1777   33.8073 C   0  0  0  0  0  0  0  0  0  0  0  0
    8.8073   40.1902   34.2076 O   0  0  0  0  0  0  0  0  0  0  0  0
   11.2377   40.7903   33.3696 O   0  0  0  0  0  0  0  0  0  0  0  0
   10.9187   40.6904   31.9961 C   0  0  0  0  0  0  0  0  0  0  0  0
   11.5174   39.3824   31.4412 C   0  0  0  0  0  0  0  0  0  0  0  0
   12.7494   39.0893   32.0756 O   0  0  0  0  0  0  0  0  0  0  0  0
   10.6036   38.1899   31.6659 C   0  0  0  0  0  0  0  0  0  0  0  0
   12.9401   37.6834   32.0276 C   0  0  0  0  0  0  0  0  0  0  0  0
    9.6376   38.0785   30.6474 O   0  0  0  0  0  0  0  0  0  0  0  0
   11.5804   37.0203   31.6937 C   0  0  0  0  0  0  0  0  0  0  0  0
   13.4902   37.2177   33.3237 N   0  0  0  0  0  0  0  0  0  0  0  0
   11.6118   36.3193   30.4680 O   0  0  0  0  0  0  0  0  0  0  0  0
   14.4759   36.3271   33.5731 C   0  0  0  0  0  0  0  0  0  0  0  0
   13.1176   37.6317   34.5688 C   0  0  0  0  0  0  0  0  0  0  0  0
   15.2064   35.6141   32.6742 N   0  0  0  0  0  0  0  0  0  0  0  0
   14.6729   36.2274   34.9184 C   0  0  0  0  0  0  0  0  0  0  0  0
   13.8221   37.0457   35.5783 N   0  0  0  0  0  0  0  0  0  0  0  0
   16.1637   34.7597   33.1549 C   0  0  0  0  0  0  0  0  0  0  0  0
   15.6514   35.3493   35.4132 C   0  0  0  0  0  0  0  0  0  0  0  0
   16.3791   34.6312   34.5043 N   0  0  0  0  0  0  0  0  0  0  0  0
   15.9001   35.1934   36.8091 N   0  0  0  0  0  0  0  0  0  0  0  0
    9.8099   44.9954   32.1509 H   0  0  0  0  0  0  0  0  0  0  0  0
   11.9222   45.7020   32.9837 H   0  0  0  0  0  0  0  0  0  0  0  0
   11.2742   46.1192   34.4985 H   0  0  0  0  0  0  0  0  0  0  0  0
    8.7966   45.7925   34.9671 H   0  0  0  0  0  0  0  0  0  0  0  0
    7.8356   44.9310   33.7178 H   0  0  0  0  0  0  0  0  0  0  0  0
    8.6557   49.5042   32.2631 H   0  0  0  0  0  0  0  0  0  0  0  0
    8.9780   50.2167   33.8611 H   0  0  0  0  0  0  0  0  0  0  0  0
    6.5804   50.2130   31.4572 H   0  0  0  0  0  0  0  0  0  0  0  0
    4.3985   49.7196   35.8811 H   0  0  0  0  0  0  0  0  0  0  0  0
    4.1684   50.6067   31.7020 H   0  0  0  0  0  0  0  0  0  0  0  0
    3.0756   50.3454   33.9055 H   0  0  0  0  0  0  0  0  0  0  0  0
    9.8308   40.7397   31.7558 H   0  0  0  0  0  0  0  0  0  0  0  0
   11.3998   41.5454   31.4747 H   0  0  0  0  0  0  0  0  0  0  0  0
   11.6989   39.5091   30.3489 H   0  0  0  0  0  0  0  0  0  0  0  0
   10.1130   38.2588   32.6664 H   0  0  0  0  0  0  0  0  0  0  0  0
   13.6800   37.4627   31.2265 H   0  0  0  0  0  0  0  0  0  0  0  0
    8.8952   38.6907   30.8891 H   0  0  0  0  0  0  0  0  0  0  0  0
   11.2831   36.3060   32.4929 H   0  0  0  0  0  0  0  0  0  0  0  0
   11.8859   36.9589   29.7593 H   0  0  0  0  0  0  0  0  0  0  0  0
   12.3360   38.3600   34.7441 H   0  0  0  0  0  0  0  0  0  0  0  0
   16.7572   34.1793   32.4621 H   0  0  0  0  0  0  0  0  0  0  0  0
   15.3528   35.7356   37.5140 H   0  0  0  0  0  0  0  0  0  0  0  0
   16.6362   34.5318   37.1416 H   0  0  0  0  0  0  0  0  0  0  0  0
  1  2  2  0
  1  3  1  0
  3  4  1  0
  4  5  1  0
  6  1  1  0
  7  6  1  0
  6  8  1  0
  8  9  1  0
  9 10  1  0
  9 11  2  0
 10 12  1  0
 12 13  1  0
 13 14  2  0
 15 13  1  0
 14 16  1  0
 14 17  1  0
 18 15  2  0
 16 19  1  0
 16 20  2  0
 17 21  2  0
 21 18  1  0
  4 22  2  0
  4 23  1  0
 24 23  1  0
 24 25  1  0
 25 26  1  0
 25 27  1  0
 26 28  1  0
 27 29  1  0
 27 30  1  0
 30 28  1  0
 28 31  1  0
 30 32  1  0
 33 31  1  0
 34 31  1  0
 35 33  2  0
 33 36  1  0
 37 34  2  0
 38 35  1  0
 36 39  2  0
 36 37  1  0
 40 38  2  0
 40 39  1  0
 39 41  1  0
  6 42  1  6
  7 43  1  0
  7 44  1  0
  8 45  1  0
  8 46  1  0
 12 47  1  0
 12 48  1  0
 15 49  1  0
 17 50  1  0
 18 51  1  0
 21 52  1  0
 24 53  1  0
 24 54  1  0
 25 55  1  0
 27 56  1  0
 28 57  1  0
 29 58  1  0
 30 59  1  0
 32 60  1  0
 34 61  1  0
 38 62  1  0
 41 63  1  0
 41 64  1  0
M  CHG  3   5  -1  16   1  19  -1
M  END
>  <EmbedRMS>  (43) 
0.08883867155429528

$$$$

     RDKit          3D

 64 67  0  0  0  0  0  0  0  0999 V2000
   10.2820   43.7751   33.8067 C   0  0  0  0  0  0  0  0  0  0  0  0
   11.4045   43.5921   34.3640 O   0  0  0  0  0  0  0  0  0  0  0  0
    9.3732   42.7272   33.6913 O   0  0  0  0  0  0  0  0  0  0  0  0
    9.8875   41.2331   34.2837 P   0  0  0  0  0  5  0  0  0  0  0  0
   10.3641   41.4719   35.8747 O   0  0  0  0  0  1  0  0  0  0  0  0
    9.9431   45.1244   33.2641 C   0  0  2  0  0  0  0  0  0  0  0  0
   11.0797   46.0243   33.4693 N   0  0  0  0  0  0  0  0  0  0  0  0
    8.6948   45.7021   33.9682 C   0  0  0  0  0  0  0  0  0  0  0  0
    7.4287   45.0612   33.4850 C   0  0  0  0  0  0  0  0  0  0  0  0
    6.9637   43.9014   34.1093 O   0  0  0  0  0  0  0  0  0  0  0  0
    6.8153   45.5506   32.4974 O   0  0  0  0  0  0  0  0  0  0  0  0
    5.7913   43.2092   33.6928 C   0  0  0  0  0  0  0  0  0  0  0  0
    5.7172   41.8732   34.3903 C   0  0  0  0  0  0  0  0  0  0  0  0
    5.8399   41.7480   35.8006 C   0  0  0  0  0  0  0  0  0  0  0  0
    5.5662   40.7118   33.6093 C   0  0  0  0  0  0  0  0  0  0  0  0
    5.9672   42.8981   36.6565 N   0  0  0  0  0  4  0  0  0  0  0  0
    5.8498   40.4639   36.3758 C   0  0  0  0  0  0  0  0  0  0  0  0
    5.5603   39.4490   34.2028 C   0  0  0  0  0  0  0  0  0  0  0  0
    5.2271   44.0333   36.4210 O   0  0  0  0  0  1  0  0  0  0  0  0
    6.6305   42.8228   37.7115 O   0  0  0  0  0  0  0  0  0  0  0  0
    5.7087   39.3250   35.5824 C   0  0  0  0  0  0  0  0  0  0  0  0
    8.8106   40.1901   34.2076 O   0  0  0  0  0  0  0  0  0  0  0  0
   11.2397   40.7883   33.3702 O   0  0  0  0  0  0  0  0  0  0  0  0
   10.9198   40.6899   31.9966 C   0  0  0  0  0  0  0  0  0  0  0  0
   11.5176   39.3821   31.4410 C   0  0  0  0  0  0  0  0  0  0  0  0
   12.7497   39.0888   32.0750 O   0  0  0  0  0  0  0  0  0  0  0  0
   10.6035   38.1900   31.6663 C   0  0  0  0  0  0  0  0  0  0  0  0
   12.9400   37.6830   32.0275 C   0  0  0  0  0  0  0  0  0  0  0  0
    9.6370   38.0788   30.6481 O   0  0  0  0  0  0  0  0  0  0  0  0
   11.5801   37.0202   31.6937 C   0  0  0  0  0  0  0  0  0  0  0  0
   13.4901   37.2176   33.3237 N   0  0  0  0  0  0  0  0  0  0  0  0
   11.6113   36.3193   30.4680 O   0  0  0  0  0  0  0  0  0  0  0  0
   14.4758   36.3271   33.5731 C   0  0  0  0  0  0  0  0  0  0  0  0
   13.1174   37.6317   34.5687 C   0  0  0  0  0  0  0  0  0  0  0  0
   15.2064   35.6141   32.6742 N   0  0  0  0  0  0  0  0  0  0  0  0
   14.6729   36.2274   34.9184 C   0  0  0  0  0  0  0  0  0  0  0  0
   13.8220   37.0458   35.5783 N   0  0  0  0  0  0  0  0  0  0  0  0
   16.1637   34.7597   33.1549 C   0  0  0  0  0  0  0  0  0  0  0  0
   15.6513   35.3493   35.4133 C   0  0  0  0  0  0  0  0  0  0  0  0
   16.3791   34.6312   34.5044 N   0  0  0  0  0  0  0  0  0  0  0  0
   15.9001   35.1935   36.8091 N   0  0  0  0  0  0  0  0  0  0  0  0
    9.7468   45.0323   32.1713 H   0  0  0  0  0  0  0  0  0  0  0  0
   11.8843   45.6771   32.8966 H   0  0  0  0  0  0  0  0  0  0  0  0
   10.8415   46.9594   33.0650 H   0  0  0  0  0  0  0  0  0  0  0  0
    8.7796   45.5736   35.0698 H   0  0  0  0  0  0  0  0  0  0  0  0
    8.6221   46.7944   33.7727 H   0  0  0  0  0  0  0  0  0  0  0  0
    4.8884   43.8109   33.9271 H   0  0  0  0  0  0  0  0  0  0  0  0
    5.8253   43.0712   32.5894 H   0  0  0  0  0  0  0  0  0  0  0  0
    5.4674   40.7796   32.5329 H   0  0  0  0  0  0  0  0  0  0  0  0
    5.9501   40.3450   37.4473 H   0  0  0  0  0  0  0  0  0  0  0  0
    5.4505   38.5639   33.5896 H   0  0  0  0  0  0  0  0  0  0  0  0
    5.7105   38.3438   36.0394 H   0  0  0  0  0  0  0  0  0  0  0  0
    9.8317   40.7393   31.7565 H   0  0  0  0  0  0  0  0  0  0  0  0
   11.4009   41.5450   31.4756 H   0  0  0  0  0  0  0  0  0  0  0  0
   11.6985   39.5090   30.3487 H   0  0  0  0  0  0  0  0  0  0  0  0
   10.1133   38.2591   32.6670 H   0  0  0  0  0  0  0  0  0  0  0  0
   13.6798   37.4619   31.2264 H   0  0  0  0  0  0  0  0  0  0  0  0
    8.8930   38.6883   30.8924 H   0  0  0  0  0  0  0  0  0  0  0  0
   11.2828   36.3058   32.4929 H   0  0  0  0  0  0  0  0  0  0  0  0
   11.8851   36.9591   29.7593 H   0  0  0  0  0  0  0  0  0  0  0  0
   12.3358   38.3598   34.7440 H   0  0  0  0  0  0  0  0  0  0  0  0
   16.7572   34.1793   32.4621 H   0  0  0  0  0  0  0  0  0  0  0  0
   16.6361   34.5318   37.1416 H   0  0  0  0  0  0  0  0  0  0  0  0
   15.3527   35.7357   37.5140 H   0  0  0  0  0  0  0  0  0  0  0  0
  1  2  2  0
  1  3  1  0
  3  4  1  0
  4  5  1  0
  6  1  1  0
  7  6  1  0
  6  8  1  0
  8  9  1  0
  9 10  1  0
  9 11  2  0
 10 12  1  0
 12 13  1  0
 13 14  2  0
 15 13  1  0
 14 16  1  0
 14 17  1  0
 18 15  2  0
 16 19  1  0
 16 20  2  0
 17 21  2  0
 21 18  1  0
  4 22  2  0
  4 23  1  0
 24 23  1  0
 24 25  1  0
 25 26  1  0
 25 27  1  0
 26 28  1  0
 27 29  1  0
 27 30  1  0
 30 28  1  0
 28 31  1  0
 30 32  1  0
 33 31  1  0
 34 31  1  0
 35 33  2  0
 33 36  1  0
 37 34  2  0
 38 35  1  0
 36 39  2  0
 36 37  1  0
 40 38  2  0
 40 39  1  0
 39 41  1  0
  6 42  1  6
  7 43  1  0
  7 44  1  0
  8 45  1  0
  8 46  1  0
 12 47  1  0
 12 48  1  0
 15 49  1  0
 17 50  1  0
 18 51  1  0
 21 52  1  0
 24 53  1  0
 24 54  1  0
 25 55  1  0
 27 56  1  0
 28 57  1  0
 29 58  1  0
 30 59  1  0
 32 60  1  0
 34 61  1  0
 38 62  1  0
 41 63  1  0
 41 64  1  0
M  CHG  3   5  -1  16   1  19  -1
M  END
>  <EmbedRMS>  (44) 
0.088883166485344

$$$$

     RDKit          3D

 64 67  0  0  0  0  0  0  0  0999 V2000
   10.2861   43.7720   33.8047 C   0  0  0  0  0  0  0  0  0  0  0  0
   11.4086   43.5885   34.3610 O   0  0  0  0  0  0  0  0  0  0  0  0
    9.3676   42.7309   33.6993 O   0  0  0  0  0  0  0  0  0  0  0  0
    9.8854   41.2341   34.2843 P   0  0  0  0  0  5  0  0  0  0  0  0
   10.3651   41.4702   35.8750 O   0  0  0  0  0  1  0  0  0  0  0  0
    9.9530   45.1148   33.2535 C   0  0  2  0  0  0  0  0  0  0  0  0
   11.0712   46.0333   33.4765 N   0  0  0  0  0  0  0  0  0  0  0  0
    8.6605   45.6656   33.8892 C   0  0  0  0  0  0  0  0  0  0  0  0
    8.7934   45.8656   35.3697 C   0  0  0  0  0  0  0  0  0  0  0  0
    9.3650   47.0466   35.8553 O   0  0  0  0  0  0  0  0  0  0  0  0
    8.4218   44.9561   36.1610 O   0  0  0  0  0  0  0  0  0  0  0  0
    9.5188   47.3261   37.2455 C   0  0  0  0  0  0  0  0  0  0  0  0
    8.1758   47.5532   37.9011 C   0  0  0  0  0  0  0  0  0  0  0  0
    7.2333   48.4876   37.3931 C   0  0  0  0  0  0  0  0  0  0  0  0
    7.8389   46.7822   39.0289 C   0  0  0  0  0  0  0  0  0  0  0  0
    7.5252   49.3194   36.2552 N   0  0  0  0  0  4  0  0  0  0  0  0
    5.9731   48.5927   38.0105 C   0  0  0  0  0  0  0  0  0  0  0  0
    6.5891   46.9139   39.6350 C   0  0  0  0  0  0  0  0  0  0  0  0
    8.7677   49.8887   36.1014 O   0  0  0  0  0  1  0  0  0  0  0  0
    6.6087   49.6632   35.4802 O   0  0  0  0  0  0  0  0  0  0  0  0
    5.6563   47.8137   39.1240 C   0  0  0  0  0  0  0  0  0  0  0  0
    8.8081   40.1911   34.2081 O   0  0  0  0  0  0  0  0  0  0  0  0
   11.2382   40.7904   33.3697 O   0  0  0  0  0  0  0  0  0  0  0  0
   10.9190   40.6905   31.9962 C   0  0  0  0  0  0  0  0  0  0  0  0
   11.5176   39.3824   31.4412 C   0  0  0  0  0  0  0  0  0  0  0  0
   12.7495   39.0892   32.0755 O   0  0  0  0  0  0  0  0  0  0  0  0
   10.6036   38.1899   31.6659 C   0  0  0  0  0  0  0  0  0  0  0  0
   12.9401   37.6833   32.0276 C   0  0  0  0  0  0  0  0  0  0  0  0
    9.6377   38.0785   30.6474 O   0  0  0  0  0  0  0  0  0  0  0  0
   11.5803   37.0203   31.6937 C   0  0  0  0  0  0  0  0  0  0  0  0
   13.4902   37.2177   33.3237 N   0  0  0  0  0  0  0  0  0  0  0  0
   11.6118   36.3193   30.4680 O   0  0  0  0  0  0  0  0  0  0  0  0
   14.4759   36.3271   33.5731 C   0  0  0  0  0  0  0  0  0  0  0  0
   13.1176   37.6317   34.5688 C   0  0  0  0  0  0  0  0  0  0  0  0
   15.2064   35.6141   32.6742 N   0  0  0  0  0  0  0  0  0  0  0  0
   14.6729   36.2274   34.9184 C   0  0  0  0  0  0  0  0  0  0  0  0
   13.8221   37.0457   35.5783 N   0  0  0  0  0  0  0  0  0  0  0  0
   16.1637   34.7597   33.1549 C   0  0  0  0  0  0  0  0  0  0  0  0
   15.6514   35.3493   35.4133 C   0  0  0  0  0  0  0  0  0  0  0  0
   16.3791   34.6312   34.5044 N   0  0  0  0  0  0  0  0  0  0  0  0
   15.9001   35.1935   36.8091 N   0  0  0  0  0  0  0  0  0  0  0  0
    9.7831   45.0053   32.1587 H   0  0  0  0  0  0  0  0  0  0  0  0
   11.8824   45.7128   32.8978 H   0  0  0  0  0  0  0  0  0  0  0  0
   10.8097   46.9718   33.0954 H   0  0  0  0  0  0  0  0  0  0  0  0
    7.8141   44.9748   33.6809 H   0  0  0  0  0  0  0  0  0  0  0  0
    8.4039   46.6391   33.4184 H   0  0  0  0  0  0  0  0  0  0  0  0
   10.1465   48.2317   37.3710 H   0  0  0  0  0  0  0  0  0  0  0  0
   10.0738   46.4897   37.7247 H   0  0  0  0  0  0  0  0  0  0  0  0
    8.5413   46.0653   39.4361 H   0  0  0  0  0  0  0  0  0  0  0  0
    5.2375   49.2940   37.6373 H   0  0  0  0  0  0  0  0  0  0  0  0
    6.3411   46.3116   40.4995 H   0  0  0  0  0  0  0  0  0  0  0  0
    4.6859   47.9109   39.5935 H   0  0  0  0  0  0  0  0  0  0  0  0
   11.4000   41.5454   31.4747 H   0  0  0  0  0  0  0  0  0  0  0  0
    9.8311   40.7397   31.7560 H   0  0  0  0  0  0  0  0  0  0  0  0
   11.6990   39.5092   30.3489 H   0  0  0  0  0  0  0  0  0  0  0  0
   10.1130   38.2589   32.6664 H   0  0  0  0  0  0  0  0  0  0  0  0
   13.6800   37.4627   31.2265 H   0  0  0  0  0  0  0  0  0  0  0  0
    8.8953   38.6909   30.8891 H   0  0  0  0  0  0  0  0  0  0  0  0
   11.2830   36.3060   32.4929 H   0  0  0  0  0  0  0  0  0  0  0  0
   11.8859   36.9589   29.7593 H   0  0  0  0  0  0  0  0  0  0  0  0
   12.3360   38.3600   34.7441 H   0  0  0  0  0  0  0  0  0  0  0  0
   16.7573   34.1793   32.4621 H   0  0  0  0  0  0  0  0  0  0  0  0
   15.3528   35.7357   37.5140 H   0  0  0  0  0  0  0  0  0  0  0  0
   16.6362   34.5318   37.1416 H   0  0  0  0  0  0  0  0  0  0  0  0
  1  2  2  0
  1  3  1  0
  3  4  1  0
  4  5  1  0
  6  1  1  0
  7  6  1  0
  6  8  1  0
  8  9  1  0
  9 10  1  0
  9 11  2  0
 10 12  1  0
 12 13  1  0
 13 14  2  0
 15 13  1  0
 14 16  1  0
 14 17  1  0
 18 15  2  0
 16 19  1  0
 16 20  2  0
 17 21  2  0
 21 18  1  0
  4 22  2  0
  4 23  1  0
 24 23  1  0
 24 25  1  0
 25 26  1  0
 25 27  1  0
 26 28  1  0
 27 29  1  0
 27 30  1  0
 30 28  1  0
 28 31  1  0
 30 32  1  0
 33 31  1  0
 34 31  1  0
 35 33  2  0
 33 36  1  0
 37 34  2  0
 38 35  1  0
 36 39  2  0
 36 37  1  0
 40 38  2  0
 40 39  1  0
 39 41  1  0
  6 42  1  6
  7 43  1  0
  7 44  1  0
  8 45  1  0
  8 46  1  0
 12 47  1  0
 12 48  1  0
 15 49  1  0
 17 50  1  0
 18 51  1  0
 21 52  1  0
 24 53  1  0
 24 54  1  0
 25 55  1  0
 27 56  1  0
 28 57  1  0
 29 58  1  0
 30 59  1  0
 32 60  1  0
 34 61  1  0
 38 62  1  0
 41 63  1  0
 41 64  1  0
M  CHG  3   5  -1  16   1  19  -1
M  END
>  <EmbedRMS>  (45) 
0.08833742659963845

$$$$

     RDKit          3D

 64 67  0  0  0  0  0  0  0  0999 V2000
   10.2813   43.7757   33.8094 C   0  0  0  0  0  0  0  0  0  0  0  0
   11.4061   43.5904   34.3609 O   0  0  0  0  0  0  0  0  0  0  0  0
    9.3707   42.7288   33.6914 O   0  0  0  0  0  0  0  0  0  0  0  0
    9.8860   41.2337   34.2815 P   0  0  0  0  0  5  0  0  0  0  0  0
   10.3641   41.4716   35.8726 O   0  0  0  0  0  1  0  0  0  0  0  0
    9.9310   45.1323   33.2958 C   0  0  2  0  0  0  0  0  0  0  0  0
   11.0882   46.0162   33.4437 N   0  0  0  0  0  0  0  0  0  0  0  0
    8.7452   45.7241   34.0872 C   0  0  0  0  0  0  0  0  0  0  0  0
    7.4686   44.9794   33.8452 C   0  0  0  0  0  0  0  0  0  0  0  0
    6.7822   45.1622   32.6400 O   0  0  0  0  0  0  0  0  0  0  0  0
    7.0319   44.1828   34.7208 O   0  0  0  0  0  0  0  0  0  0  0  0
    5.6149   44.4194   32.2943 C   0  0  0  0  0  0  0  0  0  0  0  0
    5.9845   42.9964   31.9420 C   0  0  0  0  0  0  0  0  0  0  0  0
    5.3888   41.8689   32.5672 C   0  0  0  0  0  0  0  0  0  0  0  0
    6.9847   42.7939   30.9735 C   0  0  0  0  0  0  0  0  0  0  0  0
    4.3055   42.0010   33.5001 N   0  0  0  0  0  4  0  0  0  0  0  0
    5.8550   40.5819   32.2505 C   0  0  0  0  0  0  0  0  0  0  0  0
    7.4106   41.5061   30.6480 C   0  0  0  0  0  0  0  0  0  0  0  0
    4.2416   41.1674   34.5931 O   0  0  0  0  0  1  0  0  0  0  0  0
    3.2972   42.6709   33.1945 O   0  0  0  0  0  0  0  0  0  0  0  0
    6.8565   40.4028   31.2951 C   0  0  0  0  0  0  0  0  0  0  0  0
    8.8076   40.1918   34.2063 O   0  0  0  0  0  0  0  0  0  0  0  0
   11.2392   40.7877   33.3692 O   0  0  0  0  0  0  0  0  0  0  0  0
   10.9197   40.6882   31.9959 C   0  0  0  0  0  0  0  0  0  0  0  0
   11.5269   39.3871   31.4362 C   0  0  0  0  0  0  0  0  0  0  0  0
   12.7501   39.0871   32.0796 O   0  0  0  0  0  0  0  0  0  0  0  0
   10.6105   38.1912   31.6464 C   0  0  0  0  0  0  0  0  0  0  0  0
   12.9351   37.6800   32.0292 C   0  0  0  0  0  0  0  0  0  0  0  0
    9.6145   38.0870   30.6528 O   0  0  0  0  0  0  0  0  0  0  0  0
   11.5765   37.0133   31.7027 C   0  0  0  0  0  0  0  0  0  0  0  0
   13.4904   37.2163   33.3237 N   0  0  0  0  0  0  0  0  0  0  0  0
   11.6316   36.3229   30.4743 O   0  0  0  0  0  0  0  0  0  0  0  0
   14.4765   36.3266   33.5729 C   0  0  0  0  0  0  0  0  0  0  0  0
   13.1181   37.6308   34.5688 C   0  0  0  0  0  0  0  0  0  0  0  0
   15.2066   35.6133   32.6741 N   0  0  0  0  0  0  0  0  0  0  0  0
   14.6737   36.2272   34.9184 C   0  0  0  0  0  0  0  0  0  0  0  0
   13.8229   37.0454   35.5784 N   0  0  0  0  0  0  0  0  0  0  0  0
   16.1639   34.7589   33.1549 C   0  0  0  0  0  0  0  0  0  0  0  0
   15.6516   35.3488   35.4133 C   0  0  0  0  0  0  0  0  0  0  0  0
   16.3792   34.6304   34.5044 N   0  0  0  0  0  0  0  0  0  0  0  0
   15.9002   35.1932   36.8092 N   0  0  0  0  0  0  0  0  0  0  0  0
    9.6601   45.0535   32.2182 H   0  0  0  0  0  0  0  0  0  0  0  0
   11.8528   45.6650   32.8209 H   0  0  0  0  0  0  0  0  0  0  0  0
   10.8376   46.9590   33.0655 H   0  0  0  0  0  0  0  0  0  0  0  0
    8.5827   46.7793   33.7780 H   0  0  0  0  0  0  0  0  0  0  0  0
    8.9804   45.7308   35.1749 H   0  0  0  0  0  0  0  0  0  0  0  0
    5.1428   44.8915   31.4075 H   0  0  0  0  0  0  0  0  0  0  0  0
    4.8925   44.4877   33.1313 H   0  0  0  0  0  0  0  0  0  0  0  0
    7.4449   43.6399   30.4767 H   0  0  0  0  0  0  0  0  0  0  0  0
    5.4190   39.7111   32.7244 H   0  0  0  0  0  0  0  0  0  0  0  0
    8.1825   41.3643   29.9020 H   0  0  0  0  0  0  0  0  0  0  0  0
    7.1954   39.4055   31.0491 H   0  0  0  0  0  0  0  0  0  0  0  0
   11.3853   41.5516   31.4745 H   0  0  0  0  0  0  0  0  0  0  0  0
    9.8322   40.7148   31.7612 H   0  0  0  0  0  0  0  0  0  0  0  0
   11.7289   39.5291   30.3501 H   0  0  0  0  0  0  0  0  0  0  0  0
   10.1109   38.2738   32.6374 H   0  0  0  0  0  0  0  0  0  0  0  0
   13.6687   37.4570   31.2226 H   0  0  0  0  0  0  0  0  0  0  0  0
   10.0533   38.1168   29.7631 H   0  0  0  0  0  0  0  0  0  0  0  0
   11.2794   36.3134   32.5199 H   0  0  0  0  0  0  0  0  0  0  0  0
   10.8611   35.6968   30.4644 H   0  0  0  0  0  0  0  0  0  0  0  0
   12.3357   38.3582   34.7441 H   0  0  0  0  0  0  0  0  0  0  0  0
   16.7574   34.1785   32.4620 H   0  0  0  0  0  0  0  0  0  0  0  0
   15.3532   35.7360   37.5139 H   0  0  0  0  0  0  0  0  0  0  0  0
   16.6365   34.5320   37.1417 H   0  0  0  0  0  0  0  0  0  0  0  0
  1  2  2  0
  1  3  1  0
  3  4  1  0
  4  5  1  0
  6  1  1  0
  7  6  1  0
  6  8  1  0
  8  9  1  0
  9 10  1  0
  9 11  2  0
 10 12  1  0
 12 13  1  0
 13 14  2  0
 15 13  1  0
 14 16  1  0
 14 17  1  0
 18 15  2  0
 16 19  1  0
 16 20  2  0
 17 21  2  0
 21 18  1  0
  4 22  2  0
  4 23  1  0
 24 23  1  0
 24 25  1  0
 25 26  1  0
 25 27  1  0
 26 28  1  0
 27 29  1  0
 27 30  1  0
 30 28  1  0
 28 31  1  0
 30 32  1  0
 33 31  1  0
 34 31  1  0
 35 33  2  0
 33 36  1  0
 37 34  2  0
 38 35  1  0
 36 39  2  0
 36 37  1  0
 40 38  2  0
 40 39  1  0
 39 41  1  0
  6 42  1  6
  7 43  1  0
  7 44  1  0
  8 45  1  0
  8 46  1  0
 12 47  1  0
 12 48  1  0
 15 49  1  0
 17 50  1  0
 18 51  1  0
 21 52  1  0
 24 53  1  0
 24 54  1  0
 25 55  1  0
 27 56  1  0
 28 57  1  0
 29 58  1  0
 30 59  1  0
 32 60  1  0
 34 61  1  0
 38 62  1  0
 41 63  1  0
 41 64  1  0
M  CHG  3   5  -1  16   1  19  -1
M  END
>  <EmbedRMS>  (46) 
0.08996572094740764

$$$$

     RDKit          3D

 64 67  0  0  0  0  0  0  0  0999 V2000
   10.2881   43.7704   33.7992 C   0  0  0  0  0  0  0  0  0  0  0  0
   11.4093   43.5875   34.3585 O   0  0  0  0  0  0  0  0  0  0  0  0
    9.3677   42.7305   33.6984 O   0  0  0  0  0  0  0  0  0  0  0  0
    9.8850   41.2343   34.2853 P   0  0  0  0  0  5  0  0  0  0  0  0
   10.3684   41.4702   35.8743 O   0  0  0  0  0  1  0  0  0  0  0  0
    9.9570   45.1133   33.2445 C   0  0  2  0  0  0  0  0  0  0  0  0
   11.0658   46.0373   33.4895 N   0  0  0  0  0  0  0  0  0  0  0  0
    8.6473   45.6595   33.8502 C   0  0  0  0  0  0  0  0  0  0  0  0
    8.7193   45.8006   35.3420 C   0  0  0  0  0  0  0  0  0  0  0  0
    8.6435   44.6546   36.1367 O   0  0  0  0  0  0  0  0  0  0  0  0
    8.8693   46.9393   35.8632 O   0  0  0  0  0  0  0  0  0  0  0  0
    8.6624   44.6876   37.5591 C   0  0  0  0  0  0  0  0  0  0  0  0
    8.6495   43.2771   38.0944 C   0  0  0  0  0  0  0  0  0  0  0  0
    7.6886   42.3182   37.6730 C   0  0  0  0  0  0  0  0  0  0  0  0
    9.6528   42.8895   39.0019 C   0  0  0  0  0  0  0  0  0  0  0  0
    6.6265   42.6573   36.7631 N   0  0  0  0  0  4  0  0  0  0  0  0
    7.7892   40.9957   38.1425 C   0  0  0  0  0  0  0  0  0  0  0  0
    9.7237   41.5761   39.4679 C   0  0  0  0  0  0  0  0  0  0  0  0
    5.9595   43.8547   36.8782 O   0  0  0  0  0  1  0  0  0  0  0  0
    6.1959   41.8055   35.9583 O   0  0  0  0  0  0  0  0  0  0  0  0
    8.7978   40.6298   39.0343 C   0  0  0  0  0  0  0  0  0  0  0  0
    8.8072   40.1916   34.2110 O   0  0  0  0  0  0  0  0  0  0  0  0
   11.2372   40.7894   33.3703 O   0  0  0  0  0  0  0  0  0  0  0  0
   10.9182   40.6902   31.9967 C   0  0  0  0  0  0  0  0  0  0  0  0
   11.5172   39.3824   31.4413 C   0  0  0  0  0  0  0  0  0  0  0  0
   12.7493   39.0893   32.0756 O   0  0  0  0  0  0  0  0  0  0  0  0
   10.6035   38.1899   31.6660 C   0  0  0  0  0  0  0  0  0  0  0  0
   12.9400   37.6834   32.0276 C   0  0  0  0  0  0  0  0  0  0  0  0
    9.6375   38.0784   30.6475 O   0  0  0  0  0  0  0  0  0  0  0  0
   11.5803   37.0204   31.6937 C   0  0  0  0  0  0  0  0  0  0  0  0
   13.4901   37.2178   33.3238 N   0  0  0  0  0  0  0  0  0  0  0  0
   11.6118   36.3193   30.4680 O   0  0  0  0  0  0  0  0  0  0  0  0
   14.4758   36.3272   33.5731 C   0  0  0  0  0  0  0  0  0  0  0  0
   13.1175   37.6318   34.5689 C   0  0  0  0  0  0  0  0  0  0  0  0
   15.2063   35.6142   32.6742 N   0  0  0  0  0  0  0  0  0  0  0  0
   14.6729   36.2275   34.9185 C   0  0  0  0  0  0  0  0  0  0  0  0
   13.8221   37.0458   35.5784 N   0  0  0  0  0  0  0  0  0  0  0  0
   16.1636   34.7597   33.1549 C   0  0  0  0  0  0  0  0  0  0  0  0
   15.6513   35.3493   35.4133 C   0  0  0  0  0  0  0  0  0  0  0  0
   16.3790   34.6312   34.5044 N   0  0  0  0  0  0  0  0  0  0  0  0
   15.9001   35.1935   36.8091 N   0  0  0  0  0  0  0  0  0  0  0  0
    9.8109   45.0039   32.1463 H   0  0  0  0  0  0  0  0  0  0  0  0
   11.8893   45.7224   32.9253 H   0  0  0  0  0  0  0  0  0  0  0  0
   10.8067   46.9751   33.1052 H   0  0  0  0  0  0  0  0  0  0  0  0
    8.4093   46.6445   33.3923 H   0  0  0  0  0  0  0  0  0  0  0  0
    7.8077   44.9763   33.5974 H   0  0  0  0  0  0  0  0  0  0  0  0
    9.5738   45.2301   37.8941 H   0  0  0  0  0  0  0  0  0  0  0  0
    7.7806   45.2430   37.9420 H   0  0  0  0  0  0  0  0  0  0  0  0
   10.3947   43.6019   39.3412 H   0  0  0  0  0  0  0  0  0  0  0  0
    7.0733   40.2472   37.8271 H   0  0  0  0  0  0  0  0  0  0  0  0
   10.5043   41.2897   40.1609 H   0  0  0  0  0  0  0  0  0  0  0  0
    8.8591   39.6103   39.3927 H   0  0  0  0  0  0  0  0  0  0  0  0
   11.3990   41.5455   31.4757 H   0  0  0  0  0  0  0  0  0  0  0  0
    9.8302   40.7391   31.7567 H   0  0  0  0  0  0  0  0  0  0  0  0
   11.6985   39.5095   30.3491 H   0  0  0  0  0  0  0  0  0  0  0  0
   10.1129   38.2587   32.6665 H   0  0  0  0  0  0  0  0  0  0  0  0
   13.6800   37.4629   31.2266 H   0  0  0  0  0  0  0  0  0  0  0  0
    8.8949   38.6904   30.8894 H   0  0  0  0  0  0  0  0  0  0  0  0
   11.2831   36.3060   32.4929 H   0  0  0  0  0  0  0  0  0  0  0  0
   11.8858   36.9590   29.7593 H   0  0  0  0  0  0  0  0  0  0  0  0
   12.3359   38.3601   34.7443 H   0  0  0  0  0  0  0  0  0  0  0  0
   16.7572   34.1793   32.4621 H   0  0  0  0  0  0  0  0  0  0  0  0
   15.3528   35.7357   37.5140 H   0  0  0  0  0  0  0  0  0  0  0  0
   16.6361   34.5318   37.1416 H   0  0  0  0  0  0  0  0  0  0  0  0
  1  2  2  0
  1  3  1  0
  3  4  1  0
  4  5  1  0
  6  1  1  0
  7  6  1  0
  6  8  1  0
  8  9  1  0
  9 10  1  0
  9 11  2  0
 10 12  1  0
 12 13  1  0
 13 14  2  0
 15 13  1  0
 14 16  1  0
 14 17  1  0
 18 15  2  0
 16 19  1  0
 16 20  2  0
 17 21  2  0
 21 18  1  0
  4 22  2  0
  4 23  1  0
 24 23  1  0
 24 25  1  0
 25 26  1  0
 25 27  1  0
 26 28  1  0
 27 29  1  0
 27 30  1  0
 30 28  1  0
 28 31  1  0
 30 32  1  0
 33 31  1  0
 34 31  1  0
 35 33  2  0
 33 36  1  0
 37 34  2  0
 38 35  1  0
 36 39  2  0
 36 37  1  0
 40 38  2  0
 40 39  1  0
 39 41  1  0
  6 42  1  6
  7 43  1  0
  7 44  1  0
  8 45  1  0
  8 46  1  0
 12 47  1  0
 12 48  1  0
 15 49  1  0
 17 50  1  0
 18 51  1  0
 21 52  1  0
 24 53  1  0
 24 54  1  0
 25 55  1  0
 27 56  1  0
 28 57  1  0
 29 58  1  0
 30 59  1  0
 32 60  1  0
 34 61  1  0
 38 62  1  0
 41 63  1  0
 41 64  1  0
M  CHG  3   5  -1  16   1  19  -1
M  END
>  <EmbedRMS>  (47) 
0.0882145544983774

$$$$

     RDKit          3D

 64 67  0  0  0  0  0  0  0  0999 V2000
   10.2864   43.7709   33.8098 C   0  0  0  0  0  0  0  0  0  0  0  0
   11.4101   43.5818   34.3617 O   0  0  0  0  0  0  0  0  0  0  0  0
    9.3671   42.7307   33.7017 O   0  0  0  0  0  0  0  0  0  0  0  0
    9.8851   41.2327   34.2837 P   0  0  0  0  0  5  0  0  0  0  0  0
   10.3652   41.4675   35.8745 O   0  0  0  0  0  1  0  0  0  0  0  0
    9.9610   45.1122   33.2472 C   0  0  2  0  0  0  0  0  0  0  0  0
   11.0652   46.0476   33.4749 N   0  0  0  0  0  0  0  0  0  0  0  0
    8.6651   45.6569   33.8708 C   0  0  0  0  0  0  0  0  0  0  0  0
    8.2863   46.9716   33.2636 C   0  0  0  0  0  0  0  0  0  0  0  0
    8.5930   48.1575   33.9404 O   0  0  0  0  0  0  0  0  0  0  0  0
    7.7251   47.0002   32.1342 O   0  0  0  0  0  0  0  0  0  0  0  0
    8.3529   49.4513   33.3905 C   0  0  0  0  0  0  0  0  0  0  0  0
    9.3225   49.7411   32.2678 C   0  0  0  0  0  0  0  0  0  0  0  0
   10.7330   49.6799   32.4440 C   0  0  0  0  0  0  0  0  0  0  0  0
    8.8017   50.0315   30.9929 C   0  0  0  0  0  0  0  0  0  0  0  0
   11.3341   49.4010   33.7239 N   0  0  0  0  0  4  0  0  0  0  0  0
   11.5686   49.8843   31.3293 C   0  0  0  0  0  0  0  0  0  0  0  0
    9.6504   50.2445   29.9067 C   0  0  0  0  0  0  0  0  0  0  0  0
   10.7826   49.8889   34.8851 O   0  0  0  0  0  1  0  0  0  0  0  0
   12.4557   48.8553   33.7817 O   0  0  0  0  0  0  0  0  0  0  0  0
   11.0307   50.1669   30.0735 C   0  0  0  0  0  0  0  0  0  0  0  0
    8.8075   40.1901   34.2071 O   0  0  0  0  0  0  0  0  0  0  0  0
   11.2381   40.7897   33.3686 O   0  0  0  0  0  0  0  0  0  0  0  0
   10.9194   40.6894   31.9948 C   0  0  0  0  0  0  0  0  0  0  0  0
   11.5171   39.3801   31.4396 C   0  0  0  0  0  0  0  0  0  0  0  0
   12.7479   39.0861   32.0733 O   0  0  0  0  0  0  0  0  0  0  0  0
   10.6031   38.1891   31.6666 C   0  0  0  0  0  0  0  0  0  0  0  0
   12.9335   37.6796   32.0279 C   0  0  0  0  0  0  0  0  0  0  0  0
    9.6397   38.0777   30.6456 O   0  0  0  0  0  0  0  0  0  0  0  0
   11.5739   37.0154   31.7057 C   0  0  0  0  0  0  0  0  0  0  0  0
   13.4903   37.2178   33.3231 N   0  0  0  0  0  0  0  0  0  0  0  0
   11.6211   36.3376   30.4695 O   0  0  0  0  0  0  0  0  0  0  0  0
   14.4761   36.3273   33.5725 C   0  0  0  0  0  0  0  0  0  0  0  0
   13.1179   37.6317   34.5684 C   0  0  0  0  0  0  0  0  0  0  0  0
   15.2063   35.6139   32.6737 N   0  0  0  0  0  0  0  0  0  0  0  0
   14.6733   36.2277   34.9179 C   0  0  0  0  0  0  0  0  0  0  0  0
   13.8225   37.0459   35.5779 N   0  0  0  0  0  0  0  0  0  0  0  0
   16.1636   34.7594   33.1546 C   0  0  0  0  0  0  0  0  0  0  0  0
   15.6515   35.3494   35.4129 C   0  0  0  0  0  0  0  0  0  0  0  0
   16.3791   34.6311   34.5041 N   0  0  0  0  0  0  0  0  0  0  0  0
   15.9001   35.1935   36.8088 N   0  0  0  0  0  0  0  0  0  0  0  0
    9.8108   44.9952   32.1509 H   0  0  0  0  0  0  0  0  0  0  0  0
   11.2742   46.1194   34.4982 H   0  0  0  0  0  0  0  0  0  0  0  0
   11.9221   45.7033   32.9827 H   0  0  0  0  0  0  0  0  0  0  0  0
    8.7934   45.7814   34.9685 H   0  0  0  0  0  0  0  0  0  0  0  0
    7.8329   44.9379   33.7057 H   0  0  0  0  0  0  0  0  0  0  0  0
    8.4613   50.2180   34.1836 H   0  0  0  0  0  0  0  0  0  0  0  0
    7.2962   49.5126   33.0484 H   0  0  0  0  0  0  0  0  0  0  0  0
    7.7317   50.0816   30.8330 H   0  0  0  0  0  0  0  0  0  0  0  0
   12.6452   49.8397   31.4356 H   0  0  0  0  0  0  0  0  0  0  0  0
    9.2357   50.4636   28.9312 H   0  0  0  0  0  0  0  0  0  0  0  0
   11.6869   50.3285   29.2280 H   0  0  0  0  0  0  0  0  0  0  0  0
   11.4014   41.5437   31.4731 H   0  0  0  0  0  0  0  0  0  0  0  0
    9.8316   40.7398   31.7544 H   0  0  0  0  0  0  0  0  0  0  0  0
   11.6982   39.5042   30.3470 H   0  0  0  0  0  0  0  0  0  0  0  0
   10.1090   38.2631   32.6649 H   0  0  0  0  0  0  0  0  0  0  0  0
   13.6656   37.4540   31.2207 H   0  0  0  0  0  0  0  0  0  0  0  0
    8.8965   38.6900   30.8851 H   0  0  0  0  0  0  0  0  0  0  0  0
   11.2846   36.3060   32.5175 H   0  0  0  0  0  0  0  0  0  0  0  0
   10.8524   35.7094   30.4590 H   0  0  0  0  0  0  0  0  0  0  0  0
   12.3353   38.3588   34.7439 H   0  0  0  0  0  0  0  0  0  0  0  0
   16.7570   34.1788   32.4619 H   0  0  0  0  0  0  0  0  0  0  0  0
   15.3529   35.7359   37.5136 H   0  0  0  0  0  0  0  0  0  0  0  0
   16.6360   34.5317   37.1413 H   0  0  0  0  0  0  0  0  0  0  0  0
  1  2  2  0
  1  3  1  0
  3  4  1  0
  4  5  1  0
  6  1  1  0
  7  6  1  0
  6  8  1  0
  8  9  1  0
  9 10  1  0
  9 11  2  0
 10 12  1  0
 12 13  1  0
 13 14  2  0
 15 13  1  0
 14 16  1  0
 14 17  1  0
 18 15  2  0
 16 19  1  0
 16 20  2  0
 17 21  2  0
 21 18  1  0
  4 22  2  0
  4 23  1  0
 24 23  1  0
 24 25  1  0
 25 26  1  0
 25 27  1  0
 26 28  1  0
 27 29  1  0
 27 30  1  0
 30 28  1  0
 28 31  1  0
 30 32  1  0
 33 31  1  0
 34 31  1  0
 35 33  2  0
 33 36  1  0
 37 34  2  0
 38 35  1  0
 36 39  2  0
 36 37  1  0
 40 38  2  0
 40 39  1  0
 39 41  1  0
  6 42  1  6
  7 43  1  0
  7 44  1  0
  8 45  1  0
  8 46  1  0
 12 47  1  0
 12 48  1  0
 15 49  1  0
 17 50  1  0
 18 51  1  0
 21 52  1  0
 24 53  1  0
 24 54  1  0
 25 55  1  0
 27 56  1  0
 28 57  1  0
 29 58  1  0
 30 59  1  0
 32 60  1  0
 34 61  1  0
 38 62  1  0
 41 63  1  0
 41 64  1  0
M  CHG  3   5  -1  16   1  19  -1
M  END
>  <EmbedRMS>  (48) 
0.08993590035343234

$$$$

     RDKit          3D

 64 67  0  0  0  0  0  0  0  0999 V2000
   10.2812   43.7760   33.8098 C   0  0  0  0  0  0  0  0  0  0  0  0
   11.4072   43.5920   34.3593 O   0  0  0  0  0  0  0  0  0  0  0  0
    9.3699   42.7293   33.6983 O   0  0  0  0  0  0  0  0  0  0  0  0
    9.8868   41.2337   34.2845 P   0  0  0  0  0  5  0  0  0  0  0  0
   10.3658   41.4702   35.8751 O   0  0  0  0  0  1  0  0  0  0  0  0
    9.9504   45.1171   33.2486 C   0  0  2  0  0  0  0  0  0  0  0  0
   11.0749   46.0257   33.4795 N   0  0  0  0  0  0  0  0  0  0  0  0
    8.6564   45.6932   33.8665 C   0  0  0  0  0  0  0  0  0  0  0  0
    7.4403   44.9336   33.4326 C   0  0  0  0  0  0  0  0  0  0  0  0
    6.8347   44.0382   34.3220 O   0  0  0  0  0  0  0  0  0  0  0  0
    6.9917   45.0836   32.2632 O   0  0  0  0  0  0  0  0  0  0  0  0
    5.7213   43.2185   33.9679 C   0  0  0  0  0  0  0  0  0  0  0  0
    4.4570   44.0345   33.8005 C   0  0  0  0  0  0  0  0  0  0  0  0
    3.4535   43.6716   32.8644 C   0  0  0  0  0  0  0  0  0  0  0  0
    4.2584   45.1700   34.6099 C   0  0  0  0  0  0  0  0  0  0  0  0
    3.5450   42.4625   32.0919 N   0  0  0  0  0  4  0  0  0  0  0  0
    2.3305   44.5031   32.7033 C   0  0  0  0  0  0  0  0  0  0  0  0
    3.1276   45.9716   34.4480 C   0  0  0  0  0  0  0  0  0  0  0  0
    3.9294   41.2851   32.6912 O   0  0  0  0  0  1  0  0  0  0  0  0
    3.0867   42.4251   30.9312 O   0  0  0  0  0  0  0  0  0  0  0  0
    2.1717   45.6458   33.4881 C   0  0  0  0  0  0  0  0  0  0  0  0
    8.8085   40.1917   34.2080 O   0  0  0  0  0  0  0  0  0  0  0  0
   11.2390   40.7898   33.3697 O   0  0  0  0  0  0  0  0  0  0  0  0
   10.9191   40.6903   31.9963 C   0  0  0  0  0  0  0  0  0  0  0  0
   11.5176   39.3823   31.4410 C   0  0  0  0  0  0  0  0  0  0  0  0
   12.7496   39.0891   32.0753 O   0  0  0  0  0  0  0  0  0  0  0  0
   10.6036   38.1900   31.6659 C   0  0  0  0  0  0  0  0  0  0  0  0
   12.9401   37.6832   32.0275 C   0  0  0  0  0  0  0  0  0  0  0  0
    9.6375   38.0786   30.6475 O   0  0  0  0  0  0  0  0  0  0  0  0
   11.5803   37.0203   31.6937 C   0  0  0  0  0  0  0  0  0  0  0  0
   13.4901   37.2177   33.3237 N   0  0  0  0  0  0  0  0  0  0  0  0
   11.6116   36.3193   30.4680 O   0  0  0  0  0  0  0  0  0  0  0  0
   14.4758   36.3271   33.5731 C   0  0  0  0  0  0  0  0  0  0  0  0
   13.1175   37.6317   34.5687 C   0  0  0  0  0  0  0  0  0  0  0  0
   15.2064   35.6141   32.6742 N   0  0  0  0  0  0  0  0  0  0  0  0
   14.6729   36.2274   34.9184 C   0  0  0  0  0  0  0  0  0  0  0  0
   13.8221   37.0458   35.5783 N   0  0  0  0  0  0  0  0  0  0  0  0
   16.1637   34.7597   33.1549 C   0  0  0  0  0  0  0  0  0  0  0  0
   15.6514   35.3493   35.4133 C   0  0  0  0  0  0  0  0  0  0  0  0
   16.3791   34.6312   34.5044 N   0  0  0  0  0  0  0  0  0  0  0  0
   15.9001   35.1935   36.8091 N   0  0  0  0  0  0  0  0  0  0  0  0
    9.8136   45.0028   32.1500 H   0  0  0  0  0  0  0  0  0  0  0  0
   10.9068   46.9083   32.9436 H   0  0  0  0  0  0  0  0  0  0  0  0
   11.1171   46.2824   34.4937 H   0  0  0  0  0  0  0  0  0  0  0  0
    8.7253   45.6817   34.9765 H   0  0  0  0  0  0  0  0  0  0  0  0
    8.5338   46.7521   33.5511 H   0  0  0  0  0  0  0  0  0  0  0  0
    5.5579   42.4739   34.7745 H   0  0  0  0  0  0  0  0  0  0  0  0
    5.9770   42.6703   33.0364 H   0  0  0  0  0  0  0  0  0  0  0  0
    4.9878   45.4470   35.3608 H   0  0  0  0  0  0  0  0  0  0  0  0
    1.5602   44.2491   31.9860 H   0  0  0  0  0  0  0  0  0  0  0  0
    2.9944   46.8498   35.0666 H   0  0  0  0  0  0  0  0  0  0  0  0
    1.2970   46.2709   33.3626 H   0  0  0  0  0  0  0  0  0  0  0  0
   11.4000   41.5453   31.4748 H   0  0  0  0  0  0  0  0  0  0  0  0
    9.8311   40.7396   31.7564 H   0  0  0  0  0  0  0  0  0  0  0  0
   11.6988   39.5091   30.3487 H   0  0  0  0  0  0  0  0  0  0  0  0
   10.1131   38.2590   32.6664 H   0  0  0  0  0  0  0  0  0  0  0  0
   13.6800   37.4624   31.2265 H   0  0  0  0  0  0  0  0  0  0  0  0
    8.8953   38.6911   30.8892 H   0  0  0  0  0  0  0  0  0  0  0  0
   11.2829   36.3060   32.4929 H   0  0  0  0  0  0  0  0  0  0  0  0
   11.8857   36.9589   29.7592 H   0  0  0  0  0  0  0  0  0  0  0  0
   12.3360   38.3600   34.7441 H   0  0  0  0  0  0  0  0  0  0  0  0
   16.7572   34.1793   32.4621 H   0  0  0  0  0  0  0  0  0  0  0  0
   16.6362   34.5318   37.1416 H   0  0  0  0  0  0  0  0  0  0  0  0
   15.3528   35.7357   37.5140 H   0  0  0  0  0  0  0  0  0  0  0  0
  1  2  2  0
  1  3  1  0
  3  4  1  0
  4  5  1  0
  6  1  1  0
  7  6  1  0
  6  8  1  0
  8  9  1  0
  9 10  1  0
  9 11  2  0
 10 12  1  0
 12 13  1  0
 13 14  2  0
 15 13  1  0
 14 16  1  0
 14 17  1  0
 18 15  2  0
 16 19  1  0
 16 20  2  0
 17 21  2  0
 21 18  1  0
  4 22  2  0
  4 23  1  0
 24 23  1  0
 24 25  1  0
 25 26  1  0
 25 27  1  0
 26 28  1  0
 27 29  1  0
 27 30  1  0
 30 28  1  0
 28 31  1  0
 30 32  1  0
 33 31  1  0
 34 31  1  0
 35 33  2  0
 33 36  1  0
 37 34  2  0
 38 35  1  0
 36 39  2  0
 36 37  1  0
 40 38  2  0
 40 39  1  0
 39 41  1  0
  6 42  1  6
  7 43  1  0
  7 44  1  0
  8 45  1  0
  8 46  1  0
 12 47  1  0
 12 48  1  0
 15 49  1  0
 17 50  1  0
 18 51  1  0
 21 52  1  0
 24 53  1  0
 24 54  1  0
 25 55  1  0
 27 56  1  0
 28 57  1  0
 29 58  1  0
 30 59  1  0
 32 60  1  0
 34 61  1  0
 38 62  1  0
 41 63  1  0
 41 64  1  0
M  CHG  3   5  -1  16   1  19  -1
M  END
>  <EmbedRMS>  (49) 
0.0884219559071197

$$$$

     RDKit          3D

 64 67  0  0  0  0  0  0  0  0999 V2000
   10.2862   43.7719   33.8046 C   0  0  0  0  0  0  0  0  0  0  0  0
   11.4086   43.5885   34.3611 O   0  0  0  0  0  0  0  0  0  0  0  0
    9.3678   42.7306   33.6989 O   0  0  0  0  0  0  0  0  0  0  0  0
    9.8859   41.2338   34.2836 P   0  0  0  0  0  5  0  0  0  0  0  0
   10.3655   41.4699   35.8743 O   0  0  0  0  0  1  0  0  0  0  0  0
    9.9530   45.1147   33.2534 C   0  0  2  0  0  0  0  0  0  0  0  0
   11.0712   46.0333   33.4766 N   0  0  0  0  0  0  0  0  0  0  0  0
    8.6603   45.6656   33.8888 C   0  0  0  0  0  0  0  0  0  0  0  0
    8.7935   45.8669   35.3691 C   0  0  0  0  0  0  0  0  0  0  0  0
    9.3499   47.0556   35.8550 O   0  0  0  0  0  0  0  0  0  0  0  0
    8.4351   44.9524   36.1608 O   0  0  0  0  0  0  0  0  0  0  0  0
    9.5249   47.3234   37.2461 C   0  0  0  0  0  0  0  0  0  0  0  0
    8.1989   47.5515   37.9409 C   0  0  0  0  0  0  0  0  0  0  0  0
    7.9881   47.1686   39.2915 C   0  0  0  0  0  0  0  0  0  0  0  0
    7.1530   48.1802   37.2375 C   0  0  0  0  0  0  0  0  0  0  0  0
    9.0497   46.6282   40.0962 N   0  0  0  0  0  4  0  0  0  0  0  0
    6.7155   47.3423   39.8648 C   0  0  0  0  0  0  0  0  0  0  0  0
    5.9029   48.3611   37.8307 C   0  0  0  0  0  0  0  0  0  0  0  0
   10.2990   47.2043   40.0719 O   0  0  0  0  0  1  0  0  0  0  0  0
    8.7997   45.7703   40.9680 O   0  0  0  0  0  0  0  0  0  0  0  0
    5.6808   47.9317   39.1375 C   0  0  0  0  0  0  0  0  0  0  0  0
    8.8083   40.1911   34.2077 O   0  0  0  0  0  0  0  0  0  0  0  0
   11.2386   40.7898   33.3687 O   0  0  0  0  0  0  0  0  0  0  0  0
   10.9197   40.6894   31.9949 C   0  0  0  0  0  0  0  0  0  0  0  0
   11.5172   39.3800   31.4397 C   0  0  0  0  0  0  0  0  0  0  0  0
   12.7480   39.0860   32.0732 O   0  0  0  0  0  0  0  0  0  0  0  0
   10.6032   38.1891   31.6666 C   0  0  0  0  0  0  0  0  0  0  0  0
   12.9336   37.6796   32.0279 C   0  0  0  0  0  0  0  0  0  0  0  0
    9.6397   38.0777   30.6456 O   0  0  0  0  0  0  0  0  0  0  0  0
   11.5739   37.0154   31.7057 C   0  0  0  0  0  0  0  0  0  0  0  0
   13.4903   37.2178   33.3231 N   0  0  0  0  0  0  0  0  0  0  0  0
   11.6211   36.3376   30.4695 O   0  0  0  0  0  0  0  0  0  0  0  0
   14.4761   36.3273   33.5725 C   0  0  0  0  0  0  0  0  0  0  0  0
   13.1179   37.6316   34.5684 C   0  0  0  0  0  0  0  0  0  0  0  0
   15.2063   35.6139   32.6737 N   0  0  0  0  0  0  0  0  0  0  0  0
   14.6734   36.2277   34.9180 C   0  0  0  0  0  0  0  0  0  0  0  0
   13.8225   37.0459   35.5779 N   0  0  0  0  0  0  0  0  0  0  0  0
   16.1636   34.7594   33.1546 C   0  0  0  0  0  0  0  0  0  0  0  0
   15.6515   35.3494   35.4129 C   0  0  0  0  0  0  0  0  0  0  0  0
   16.3791   34.6311   34.5041 N   0  0  0  0  0  0  0  0  0  0  0  0
   15.9001   35.1935   36.8088 N   0  0  0  0  0  0  0  0  0  0  0  0
    9.7834   45.0052   32.1586 H   0  0  0  0  0  0  0  0  0  0  0  0
   11.8826   45.7126   32.8984 H   0  0  0  0  0  0  0  0  0  0  0  0
   10.8098   46.9716   33.0949 H   0  0  0  0  0  0  0  0  0  0  0  0
    7.8143   44.9740   33.6816 H   0  0  0  0  0  0  0  0  0  0  0  0
    8.4031   46.6383   33.4168 H   0  0  0  0  0  0  0  0  0  0  0  0
   10.0781   46.4723   37.6965 H   0  0  0  0  0  0  0  0  0  0  0  0
   10.1442   48.2376   37.3571 H   0  0  0  0  0  0  0  0  0  0  0  0
    7.2985   48.5196   36.2195 H   0  0  0  0  0  0  0  0  0  0  0  0
    6.5322   47.0456   40.8899 H   0  0  0  0  0  0  0  0  0  0  0  0
    5.1033   48.8324   37.2738 H   0  0  0  0  0  0  0  0  0  0  0  0
    4.7094   48.0705   39.5942 H   0  0  0  0  0  0  0  0  0  0  0  0
   11.4016   41.5436   31.4731 H   0  0  0  0  0  0  0  0  0  0  0  0
    9.8319   40.7398   31.7546 H   0  0  0  0  0  0  0  0  0  0  0  0
   11.6983   39.5042   30.3470 H   0  0  0  0  0  0  0  0  0  0  0  0
   10.1090   38.2632   32.6649 H   0  0  0  0  0  0  0  0  0  0  0  0
   13.6656   37.4539   31.2207 H   0  0  0  0  0  0  0  0  0  0  0  0
    8.8966   38.6901   30.8852 H   0  0  0  0  0  0  0  0  0  0  0  0
   11.2846   36.3060   32.5175 H   0  0  0  0  0  0  0  0  0  0  0  0
   10.8523   35.7094   30.4590 H   0  0  0  0  0  0  0  0  0  0  0  0
   12.3353   38.3588   34.7439 H   0  0  0  0  0  0  0  0  0  0  0  0
   16.7570   34.1788   32.4619 H   0  0  0  0  0  0  0  0  0  0  0  0
   16.6360   34.5317   37.1413 H   0  0  0  0  0  0  0  0  0  0  0  0
   15.3529   35.7359   37.5136 H   0  0  0  0  0  0  0  0  0  0  0  0
  1  2  2  0
  1  3  1  0
  3  4  1  0
  4  5  1  0
  6  1  1  0
  7  6  1  0
  6  8  1  0
  8  9  1  0
  9 10  1  0
  9 11  2  0
 10 12  1  0
 12 13  1  0
 13 14  2  0
 15 13  1  0
 14 16  1  0
 14 17  1  0
 18 15  2  0
 16 19  1  0
 16 20  2  0
 17 21  2  0
 21 18  1  0
  4 22  2  0
  4 23  1  0
 24 23  1  0
 24 25  1  0
 25 26  1  0
 25 27  1  0
 26 28  1  0
 27 29  1  0
 27 30  1  0
 30 28  1  0
 28 31  1  0
 30 32  1  0
 33 31  1  0
 34 31  1  0
 35 33  2  0
 33 36  1  0
 37 34  2  0
 38 35  1  0
 36 39  2  0
 36 37  1  0
 40 38  2  0
 40 39  1  0
 39 41  1  0
  6 42  1  6
  7 43  1  0
  7 44  1  0
  8 45  1  0
  8 46  1  0
 12 47  1  0
 12 48  1  0
 15 49  1  0
 17 50  1  0
 18 51  1  0
 21 52  1  0
 24 53  1  0
 24 54  1  0
 25 55  1  0
 27 56  1  0
 28 57  1  0
 29 58  1  0
 30 59  1  0
 32 60  1  0
 34 61  1  0
 38 62  1  0
 41 63  1  0
 41 64  1  0
M  CHG  3   5  -1  16   1  19  -1
M  END
>  <EmbedRMS>  (50) 
0.08946583789449397

$$$$

     RDKit          3D

 64 67  0  0  0  0  0  0  0  0999 V2000
   10.2850   43.7724   33.8067 C   0  0  0  0  0  0  0  0  0  0  0  0
   11.4106   43.5874   34.3563 O   0  0  0  0  0  0  0  0  0  0  0  0
    9.3667   42.7311   33.7012 O   0  0  0  0  0  0  0  0  0  0  0  0
    9.8856   41.2339   34.2841 P   0  0  0  0  0  5  0  0  0  0  0  0
   10.3657   41.4695   35.8747 O   0  0  0  0  0  1  0  0  0  0  0  0
    9.9582   45.1107   33.2440 C   0  0  2  0  0  0  0  0  0  0  0  0
   11.0675   46.0366   33.4847 N   0  0  0  0  0  0  0  0  0  0  0  0
    8.6200   45.6577   33.7907 C   0  0  0  0  0  0  0  0  0  0  0  0
    8.6116   45.8066   35.2833 C   0  0  0  0  0  0  0  0  0  0  0  0
    8.9685   47.0331   35.8544 O   0  0  0  0  0  0  0  0  0  0  0  0
    8.3083   44.8212   36.0102 O   0  0  0  0  0  0  0  0  0  0  0  0
    8.9769   47.2667   37.2614 C   0  0  0  0  0  0  0  0  0  0  0  0
    7.5704   47.2698   37.8156 C   0  0  0  0  0  0  0  0  0  0  0  0
    6.5422   48.0835   37.2679 C   0  0  0  0  0  0  0  0  0  0  0  0
    7.2668   46.4063   38.8844 C   0  0  0  0  0  0  0  0  0  0  0  0
    6.7934   49.0011   36.1876 N   0  0  0  0  0  4  0  0  0  0  0  0
    5.2381   47.9792   37.7861 C   0  0  0  0  0  0  0  0  0  0  0  0
    5.9698   46.3304   39.3930 C   0  0  0  0  0  0  0  0  0  0  0  0
    7.9479   49.7478   36.1541 O   0  0  0  0  0  1  0  0  0  0  0  0
    5.8964   49.2474   35.3549 O   0  0  0  0  0  0  0  0  0  0  0  0
    4.9565   47.1115   38.8418 C   0  0  0  0  0  0  0  0  0  0  0  0
    8.8082   40.1910   34.2080 O   0  0  0  0  0  0  0  0  0  0  0  0
   11.2384   40.7904   33.3687 O   0  0  0  0  0  0  0  0  0  0  0  0
   10.9193   40.6895   31.9950 C   0  0  0  0  0  0  0  0  0  0  0  0
   11.5170   39.3801   31.4398 C   0  0  0  0  0  0  0  0  0  0  0  0
   12.7478   39.0862   32.0734 O   0  0  0  0  0  0  0  0  0  0  0  0
   10.6031   38.1891   31.6667 C   0  0  0  0  0  0  0  0  0  0  0  0
   12.9335   37.6797   32.0280 C   0  0  0  0  0  0  0  0  0  0  0  0
    9.6397   38.0777   30.6456 O   0  0  0  0  0  0  0  0  0  0  0  0
   11.5739   37.0154   31.7057 C   0  0  0  0  0  0  0  0  0  0  0  0
   13.4903   37.2178   33.3231 N   0  0  0  0  0  0  0  0  0  0  0  0
   11.6211   36.3376   30.4695 O   0  0  0  0  0  0  0  0  0  0  0  0
   14.4761   36.3273   33.5725 C   0  0  0  0  0  0  0  0  0  0  0  0
   13.1178   37.6316   34.5684 C   0  0  0  0  0  0  0  0  0  0  0  0
   15.2063   35.6139   32.6737 N   0  0  0  0  0  0  0  0  0  0  0  0
   14.6733   36.2277   34.9180 C   0  0  0  0  0  0  0  0  0  0  0  0
   13.8225   37.0459   35.5779 N   0  0  0  0  0  0  0  0  0  0  0  0
   16.1636   34.7594   33.1546 C   0  0  0  0  0  0  0  0  0  0  0  0
   15.6515   35.3494   35.4129 C   0  0  0  0  0  0  0  0  0  0  0  0
   16.3791   34.6311   34.5041 N   0  0  0  0  0  0  0  0  0  0  0  0
   15.9001   35.1935   36.8088 N   0  0  0  0  0  0  0  0  0  0  0  0
    9.8481   44.9838   32.1447 H   0  0  0  0  0  0  0  0  0  0  0  0
   11.1607   46.2298   34.5084 H   0  0  0  0  0  0  0  0  0  0  0  0
   10.8530   46.9459   33.0142 H   0  0  0  0  0  0  0  0  0  0  0  0
    8.4113   46.6466   33.3284 H   0  0  0  0  0  0  0  0  0  0  0  0
    7.7915   44.9806   33.4880 H   0  0  0  0  0  0  0  0  0  0  0  0
    9.6106   46.4963   37.7534 H   0  0  0  0  0  0  0  0  0  0  0  0
    9.4554   48.2455   37.4685 H   0  0  0  0  0  0  0  0  0  0  0  0
    8.0339   45.7781   39.3202 H   0  0  0  0  0  0  0  0  0  0  0  0
    4.4380   48.5857   37.3807 H   0  0  0  0  0  0  0  0  0  0  0  0
    5.7488   45.6588   40.2126 H   0  0  0  0  0  0  0  0  0  0  0  0
    3.9502   47.0476   39.2356 H   0  0  0  0  0  0  0  0  0  0  0  0
   11.4009   41.5437   31.4729 H   0  0  0  0  0  0  0  0  0  0  0  0
    9.8314   40.7396   31.7550 H   0  0  0  0  0  0  0  0  0  0  0  0
   11.6982   39.5043   30.3472 H   0  0  0  0  0  0  0  0  0  0  0  0
   10.1089   38.2631   32.6650 H   0  0  0  0  0  0  0  0  0  0  0  0
   13.6656   37.4541   31.2207 H   0  0  0  0  0  0  0  0  0  0  0  0
    8.8965   38.6899   30.8852 H   0  0  0  0  0  0  0  0  0  0  0  0
   11.2846   36.3060   32.5175 H   0  0  0  0  0  0  0  0  0  0  0  0
   10.8523   35.7094   30.4590 H   0  0  0  0  0  0  0  0  0  0  0  0
   12.3353   38.3588   34.7440 H   0  0  0  0  0  0  0  0  0  0  0  0
   16.7570   34.1788   32.4619 H   0  0  0  0  0  0  0  0  0  0  0  0
   15.3529   35.7359   37.5136 H   0  0  0  0  0  0  0  0  0  0  0  0
   16.6360   34.5317   37.1413 H   0  0  0  0  0  0  0  0  0  0  0  0
  1  2  2  0
  1  3  1  0
  3  4  1  0
  4  5  1  0
  6  1  1  0
  7  6  1  0
  6  8  1  0
  8  9  1  0
  9 10  1  0
  9 11  2  0
 10 12  1  0
 12 13  1  0
 13 14  2  0
 15 13  1  0
 14 16  1  0
 14 17  1  0
 18 15  2  0
 16 19  1  0
 16 20  2  0
 17 21  2  0
 21 18  1  0
  4 22  2  0
  4 23  1  0
 24 23  1  0
 24 25  1  0
 25 26  1  0
 25 27  1  0
 26 28  1  0
 27 29  1  0
 27 30  1  0
 30 28  1  0
 28 31  1  0
 30 32  1  0
 33 31  1  0
 34 31  1  0
 35 33  2  0
 33 36  1  0
 37 34  2  0
 38 35  1  0
 36 39  2  0
 36 37  1  0
 40 38  2  0
 40 39  1  0
 39 41  1  0
  6 42  1  6
  7 43  1  0
  7 44  1  0
  8 45  1  0
  8 46  1  0
 12 47  1  0
 12 48  1  0
 15 49  1  0
 17 50  1  0
 18 51  1  0
 21 52  1  0
 24 53  1  0
 24 54  1  0
 25 55  1  0
 27 56  1  0
 28 57  1  0
 29 58  1  0
 30 59  1  0
 32 60  1  0
 34 61  1  0
 38 62  1  0
 41 63  1  0
 41 64  1  0
M  CHG  3   5  -1  16   1  19  -1
M  END
>  <EmbedRMS>  (51) 
0.08932949622321754

$$$$

     RDKit          3D

 64 67  0  0  0  0  0  0  0  0999 V2000
   10.2809   43.7757   33.8079 C   0  0  0  0  0  0  0  0  0  0  0  0
   11.4072   43.5908   34.3568 O   0  0  0  0  0  0  0  0  0  0  0  0
    9.3690   42.7294   33.6960 O   0  0  0  0  0  0  0  0  0  0  0  0
    9.8864   41.2340   34.2831 P   0  0  0  0  0  5  0  0  0  0  0  0
   10.3656   41.4708   35.8738 O   0  0  0  0  0  1  0  0  0  0  0  0
    9.9466   45.1203   33.2578 C   0  0  2  0  0  0  0  0  0  0  0  0
   11.0779   46.0235   33.4765 N   0  0  0  0  0  0  0  0  0  0  0  0
    8.6669   45.6954   33.9057 C   0  0  0  0  0  0  0  0  0  0  0  0
    7.4368   44.9899   33.4251 C   0  0  0  0  0  0  0  0  0  0  0  0
    6.9297   45.2856   32.1558 O   0  0  0  0  0  0  0  0  0  0  0  0
    6.8832   44.1233   34.1555 O   0  0  0  0  0  0  0  0  0  0  0  0
    5.9091   44.5161   31.5260 C   0  0  0  0  0  0  0  0  0  0  0  0
    6.5046   43.2576   30.9410 C   0  0  0  0  0  0  0  0  0  0  0  0
    6.3042   41.9731   31.5085 C   0  0  0  0  0  0  0  0  0  0  0  0
    7.3700   43.3924   29.8408 C   0  0  0  0  0  0  0  0  0  0  0  0
    5.4185   41.7688   32.6177 N   0  0  0  0  0  4  0  0  0  0  0  0
    6.9750   40.8659   30.9607 C   0  0  0  0  0  0  0  0  0  0  0  0
    8.0138   42.2794   29.2989 C   0  0  0  0  0  0  0  0  0  0  0  0
    4.0974   42.1378   32.5139 O   0  0  0  0  0  1  0  0  0  0  0  0
    5.7645   41.0253   33.5588 O   0  0  0  0  0  0  0  0  0  0  0  0
    7.8136   41.0180   29.8553 C   0  0  0  0  0  0  0  0  0  0  0  0
    8.8087   40.1913   34.2072 O   0  0  0  0  0  0  0  0  0  0  0  0
   11.2387   40.7905   33.3679 O   0  0  0  0  0  0  0  0  0  0  0  0
   10.9154   40.6861   31.9957 C   0  0  0  0  0  0  0  0  0  0  0  0
   11.5170   39.3799   31.4410 C   0  0  0  0  0  0  0  0  0  0  0  0
   12.7492   39.0884   32.0754 O   0  0  0  0  0  0  0  0  0  0  0  0
   10.6050   38.1879   31.6667 C   0  0  0  0  0  0  0  0  0  0  0  0
   12.9410   37.6826   32.0276 C   0  0  0  0  0  0  0  0  0  0  0  0
    9.6361   38.0919   30.6511 O   0  0  0  0  0  0  0  0  0  0  0  0
   11.5823   37.0181   31.6941 C   0  0  0  0  0  0  0  0  0  0  0  0
   13.4908   37.2177   33.3238 N   0  0  0  0  0  0  0  0  0  0  0  0
   11.6133   36.3182   30.4679 O   0  0  0  0  0  0  0  0  0  0  0  0
   14.4762   36.3270   33.5733 C   0  0  0  0  0  0  0  0  0  0  0  0
   13.1179   37.6317   34.5688 C   0  0  0  0  0  0  0  0  0  0  0  0
   15.2067   35.6140   32.6743 N   0  0  0  0  0  0  0  0  0  0  0  0
   14.6731   36.2273   34.9186 C   0  0  0  0  0  0  0  0  0  0  0  0
   13.8222   37.0457   35.5784 N   0  0  0  0  0  0  0  0  0  0  0  0
   16.1639   34.7595   33.1551 C   0  0  0  0  0  0  0  0  0  0  0  0
   15.6515   35.3492   35.4134 C   0  0  0  0  0  0  0  0  0  0  0  0
   16.3792   34.6310   34.5045 N   0  0  0  0  0  0  0  0  0  0  0  0
   15.9002   35.1934   36.8092 N   0  0  0  0  0  0  0  0  0  0  0  0
    9.7908   45.0131   32.1607 H   0  0  0  0  0  0  0  0  0  0  0  0
   11.1341   46.2785   34.4905 H   0  0  0  0  0  0  0  0  0  0  0  0
   10.9073   46.9077   32.9438 H   0  0  0  0  0  0  0  0  0  0  0  0
    8.5674   46.7697   33.6390 H   0  0  0  0  0  0  0  0  0  0  0  0
    8.7345   45.6328   35.0146 H   0  0  0  0  0  0  0  0  0  0  0  0
    5.0864   44.3260   32.2416 H   0  0  0  0  0  0  0  0  0  0  0  0
    5.4737   45.1198   30.7016 H   0  0  0  0  0  0  0  0  0  0  0  0
    7.5533   44.3678   29.4063 H   0  0  0  0  0  0  0  0  0  0  0  0
    6.8323   39.8785   31.3817 H   0  0  0  0  0  0  0  0  0  0  0  0
    8.6748   42.3967   28.4500 H   0  0  0  0  0  0  0  0  0  0  0  0
    8.3150   40.1574   29.4332 H   0  0  0  0  0  0  0  0  0  0  0  0
    9.8269   40.7190   31.7635 H   0  0  0  0  0  0  0  0  0  0  0  0
   11.3846   41.5443   31.4689 H   0  0  0  0  0  0  0  0  0  0  0  0
   11.6981   39.5071   30.3486 H   0  0  0  0  0  0  0  0  0  0  0  0
   10.1123   38.2734   32.6641 H   0  0  0  0  0  0  0  0  0  0  0  0
   13.6812   37.4623   31.2267 H   0  0  0  0  0  0  0  0  0  0  0  0
    8.9916   37.3972   30.9460 H   0  0  0  0  0  0  0  0  0  0  0  0
   11.2843   36.3043   32.4934 H   0  0  0  0  0  0  0  0  0  0  0  0
   11.8834   36.9593   29.7590 H   0  0  0  0  0  0  0  0  0  0  0  0
   12.3362   38.3599   34.7440 H   0  0  0  0  0  0  0  0  0  0  0  0
   16.7574   34.1791   32.4623 H   0  0  0  0  0  0  0  0  0  0  0  0
   15.3529   35.7356   37.5141 H   0  0  0  0  0  0  0  0  0  0  0  0
   16.6362   34.5317   37.1417 H   0  0  0  0  0  0  0  0  0  0  0  0
  1  2  2  0
  1  3  1  0
  3  4  1  0
  4  5  1  0
  6  1  1  0
  7  6  1  0
  6  8  1  0
  8  9  1  0
  9 10  1  0
  9 11  2  0
 10 12  1  0
 12 13  1  0
 13 14  2  0
 15 13  1  0
 14 16  1  0
 14 17  1  0
 18 15  2  0
 16 19  1  0
 16 20  2  0
 17 21  2  0
 21 18  1  0
  4 22  2  0
  4 23  1  0
 24 23  1  0
 24 25  1  0
 25 26  1  0
 25 27  1  0
 26 28  1  0
 27 29  1  0
 27 30  1  0
 30 28  1  0
 28 31  1  0
 30 32  1  0
 33 31  1  0
 34 31  1  0
 35 33  2  0
 33 36  1  0
 37 34  2  0
 38 35  1  0
 36 39  2  0
 36 37  1  0
 40 38  2  0
 40 39  1  0
 39 41  1  0
  6 42  1  6
  7 43  1  0
  7 44  1  0
  8 45  1  0
  8 46  1  0
 12 47  1  0
 12 48  1  0
 15 49  1  0
 17 50  1  0
 18 51  1  0
 21 52  1  0
 24 53  1  0
 24 54  1  0
 25 55  1  0
 27 56  1  0
 28 57  1  0
 29 58  1  0
 30 59  1  0
 32 60  1  0
 34 61  1  0
 38 62  1  0
 41 63  1  0
 41 64  1  0
M  CHG  3   5  -1  16   1  19  -1
M  END
>  <EmbedRMS>  (52) 
0.08808985914000336

$$$$

     RDKit          3D

 64 67  0  0  0  0  0  0  0  0999 V2000
   10.2801   43.7770   33.8189 C   0  0  0  0  0  0  0  0  0  0  0  0
   11.4031   43.5928   34.3738 O   0  0  0  0  0  0  0  0  0  0  0  0
    9.3680   42.7316   33.6996 O   0  0  0  0  0  0  0  0  0  0  0  0
    9.8861   41.2338   34.2817 P   0  0  0  0  0  5  0  0  0  0  0  0
   10.3699   41.4642   35.8709 O   0  0  0  0  0  1  0  0  0  0  0  0
    9.9536   45.1140   33.2532 C   0  0  2  0  0  0  0  0  0  0  0  0
   11.0762   46.0307   33.4618 N   0  0  0  0  0  0  0  0  0  0  0  0
    8.6515   45.6825   33.8614 C   0  0  0  0  0  0  0  0  0  0  0  0
    8.7994   46.1275   35.3005 C   0  0  0  0  0  0  0  0  0  0  0  0
    8.2156   45.4517   36.3811 O   0  0  0  0  0  0  0  0  0  0  0  0
    9.4544   47.1758   35.5423 O   0  0  0  0  0  0  0  0  0  0  0  0
    7.4902   44.2303   36.2873 C   0  0  0  0  0  0  0  0  0  0  0  0
    6.9758   43.8496   37.6521 C   0  0  0  0  0  0  0  0  0  0  0  0
    7.7939   43.2057   38.6201 C   0  0  0  0  0  0  0  0  0  0  0  0
    5.6370   44.1428   37.9705 C   0  0  0  0  0  0  0  0  0  0  0  0
    9.1849   42.9253   38.3815 N   0  0  0  0  0  4  0  0  0  0  0  0
    7.2273   42.8251   39.8498 C   0  0  0  0  0  0  0  0  0  0  0  0
    5.1004   43.7721   39.2040 C   0  0  0  0  0  0  0  0  0  0  0  0
    9.7798   41.8424   38.9876 O   0  0  0  0  0  1  0  0  0  0  0  0
    9.9074   43.7488   37.7839 O   0  0  0  0  0  0  0  0  0  0  0  0
    5.8916   43.1074   40.1385 C   0  0  0  0  0  0  0  0  0  0  0  0
    8.8080   40.1916   34.2067 O   0  0  0  0  0  0  0  0  0  0  0  0
   11.2373   40.7914   33.3649 O   0  0  0  0  0  0  0  0  0  0  0  0
   10.9137   40.6860   31.9928 C   0  0  0  0  0  0  0  0  0  0  0  0
   11.5170   39.3794   31.4402 C   0  0  0  0  0  0  0  0  0  0  0  0
   12.7487   39.0885   32.0760 O   0  0  0  0  0  0  0  0  0  0  0  0
   10.6051   38.1875   31.6658 C   0  0  0  0  0  0  0  0  0  0  0  0
   12.9411   37.6827   32.0278 C   0  0  0  0  0  0  0  0  0  0  0  0
    9.6357   38.0927   30.6503 O   0  0  0  0  0  0  0  0  0  0  0  0
   11.5826   37.0178   31.6937 C   0  0  0  0  0  0  0  0  0  0  0  0
   13.4908   37.2177   33.3240 N   0  0  0  0  0  0  0  0  0  0  0  0
   11.6140   36.3178   30.4676 O   0  0  0  0  0  0  0  0  0  0  0  0
   14.4762   36.3270   33.5734 C   0  0  0  0  0  0  0  0  0  0  0  0
   13.1179   37.6317   34.5689 C   0  0  0  0  0  0  0  0  0  0  0  0
   15.2067   35.6140   32.6744 N   0  0  0  0  0  0  0  0  0  0  0  0
   14.6731   36.2273   34.9187 C   0  0  0  0  0  0  0  0  0  0  0  0
   13.8223   37.0457   35.5785 N   0  0  0  0  0  0  0  0  0  0  0  0
   16.1639   34.7595   33.1551 C   0  0  0  0  0  0  0  0  0  0  0  0
   15.6515   35.3492   35.4135 C   0  0  0  0  0  0  0  0  0  0  0  0
   16.3792   34.6310   34.5046 N   0  0  0  0  0  0  0  0  0  0  0  0
   15.9002   35.1934   36.8092 N   0  0  0  0  0  0  0  0  0  0  0  0
    9.7919   44.9830   32.1593 H   0  0  0  0  0  0  0  0  0  0  0  0
   11.8907   45.6903   32.8993 H   0  0  0  0  0  0  0  0  0  0  0  0
   10.8231   46.9586   33.0501 H   0  0  0  0  0  0  0  0  0  0  0  0
    7.8320   44.9457   33.7436 H   0  0  0  0  0  0  0  0  0  0  0  0
    8.3445   46.5678   33.2632 H   0  0  0  0  0  0  0  0  0  0  0  0
    6.6392   44.3518   35.5828 H   0  0  0  0  0  0  0  0  0  0  0  0
    8.1430   43.4260   35.8935 H   0  0  0  0  0  0  0  0  0  0  0  0
    5.0003   44.6508   37.2564 H   0  0  0  0  0  0  0  0  0  0  0  0
    7.8288   42.3259   40.5989 H   0  0  0  0  0  0  0  0  0  0  0  0
    4.0667   43.9963   39.4334 H   0  0  0  0  0  0  0  0  0  0  0  0
    5.4718   42.8173   41.0930 H   0  0  0  0  0  0  0  0  0  0  0  0
   11.3855   41.5430   31.4664 H   0  0  0  0  0  0  0  0  0  0  0  0
    9.8235   40.7208   31.7564 H   0  0  0  0  0  0  0  0  0  0  0  0
   11.6997   39.5053   30.3479 H   0  0  0  0  0  0  0  0  0  0  0  0
   10.1122   38.2725   32.6631 H   0  0  0  0  0  0  0  0  0  0  0  0
   13.6816   37.4630   31.2270 H   0  0  0  0  0  0  0  0  0  0  0  0
    9.0034   37.3827   30.9354 H   0  0  0  0  0  0  0  0  0  0  0  0
   11.2844   36.3040   32.4929 H   0  0  0  0  0  0  0  0  0  0  0  0
   11.8849   36.9587   29.7588 H   0  0  0  0  0  0  0  0  0  0  0  0
   12.3363   38.3601   34.7441 H   0  0  0  0  0  0  0  0  0  0  0  0
   16.7574   34.1790   32.4624 H   0  0  0  0  0  0  0  0  0  0  0  0
   15.3530   35.7357   37.5141 H   0  0  0  0  0  0  0  0  0  0  0  0
   16.6363   34.5317   37.1416 H   0  0  0  0  0  0  0  0  0  0  0  0
  1  2  2  0
  1  3  1  0
  3  4  1  0
  4  5  1  0
  6  1  1  0
  7  6  1  0
  6  8  1  0
  8  9  1  0
  9 10  1  0
  9 11  2  0
 10 12  1  0
 12 13  1  0
 13 14  2  0
 15 13  1  0
 14 16  1  0
 14 17  1  0
 18 15  2  0
 16 19  1  0
 16 20  2  0
 17 21  2  0
 21 18  1  0
  4 22  2  0
  4 23  1  0
 24 23  1  0
 24 25  1  0
 25 26  1  0
 25 27  1  0
 26 28  1  0
 27 29  1  0
 27 30  1  0
 30 28  1  0
 28 31  1  0
 30 32  1  0
 33 31  1  0
 34 31  1  0
 35 33  2  0
 33 36  1  0
 37 34  2  0
 38 35  1  0
 36 39  2  0
 36 37  1  0
 40 38  2  0
 40 39  1  0
 39 41  1  0
  6 42  1  6
  7 43  1  0
  7 44  1  0
  8 45  1  0
  8 46  1  0
 12 47  1  0
 12 48  1  0
 15 49  1  0
 17 50  1  0
 18 51  1  0
 21 52  1  0
 24 53  1  0
 24 54  1  0
 25 55  1  0
 27 56  1  0
 28 57  1  0
 29 58  1  0
 30 59  1  0
 32 60  1  0
 34 61  1  0
 38 62  1  0
 41 63  1  0
 41 64  1  0
M  CHG  3   5  -1  16   1  19  -1
M  END
>  <EmbedRMS>  (53) 
0.08826772263562482

$$$$

     RDKit          3D

 64 67  0  0  0  0  0  0  0  0999 V2000
   10.2864   43.7709   33.8097 C   0  0  0  0  0  0  0  0  0  0  0  0
   11.4104   43.5813   34.3609 O   0  0  0  0  0  0  0  0  0  0  0  0
    9.3669   42.7308   33.7018 O   0  0  0  0  0  0  0  0  0  0  0  0
    9.8849   41.2328   34.2833 P   0  0  0  0  0  5  0  0  0  0  0  0
   10.3662   41.4674   35.8738 O   0  0  0  0  0  1  0  0  0  0  0  0
    9.9611   45.1125   33.2467 C   0  0  2  0  0  0  0  0  0  0  0  0
   11.0648   46.0484   33.4757 N   0  0  0  0  0  0  0  0  0  0  0  0
    8.6620   45.6563   33.8659 C   0  0  0  0  0  0  0  0  0  0  0  0
    8.2612   46.9609   33.2285 C   0  0  0  0  0  0  0  0  0  0  0  0
    8.5633   48.2146   33.7803 O   0  0  0  0  0  0  0  0  0  0  0  0
    7.6936   46.9269   32.1049 O   0  0  0  0  0  0  0  0  0  0  0  0
    8.9441   48.4743   35.1321 C   0  0  0  0  0  0  0  0  0  0  0  0
    7.7349   48.4816   36.0394 C   0  0  0  0  0  0  0  0  0  0  0  0
    6.8023   49.5563   36.0502 C   0  0  0  0  0  0  0  0  0  0  0  0
    7.5576   47.4142   36.9402 C   0  0  0  0  0  0  0  0  0  0  0  0
    6.9559   50.7125   35.2051 N   0  0  0  0  0  4  0  0  0  0  0  0
    5.7192   49.5132   36.9482 C   0  0  0  0  0  0  0  0  0  0  0  0
    6.4696   47.3879   37.8128 C   0  0  0  0  0  0  0  0  0  0  0  0
    7.3514   50.5848   33.8948 O   0  0  0  0  0  1  0  0  0  0  0  0
    6.5784   51.8326   35.6074 O   0  0  0  0  0  0  0  0  0  0  0  0
    5.5502   48.4334   37.8143 C   0  0  0  0  0  0  0  0  0  0  0  0
    8.8070   40.1905   34.2077 O   0  0  0  0  0  0  0  0  0  0  0  0
   11.2367   40.7900   33.3661 O   0  0  0  0  0  0  0  0  0  0  0  0
   10.9141   40.6849   31.9931 C   0  0  0  0  0  0  0  0  0  0  0  0
   11.5165   39.3773   31.4393 C   0  0  0  0  0  0  0  0  0  0  0  0
   12.7471   39.0855   32.0739 O   0  0  0  0  0  0  0  0  0  0  0  0
   10.6047   38.1867   31.6669 C   0  0  0  0  0  0  0  0  0  0  0  0
   12.9345   37.6791   32.0282 C   0  0  0  0  0  0  0  0  0  0  0  0
    9.6378   38.0917   30.6488 O   0  0  0  0  0  0  0  0  0  0  0  0
   11.5761   37.0129   31.7056 C   0  0  0  0  0  0  0  0  0  0  0  0
   13.4909   37.2177   33.3233 N   0  0  0  0  0  0  0  0  0  0  0  0
   11.6234   36.3371   30.4684 O   0  0  0  0  0  0  0  0  0  0  0  0
   14.4765   36.3271   33.5727 C   0  0  0  0  0  0  0  0  0  0  0  0
   13.1182   37.6316   34.5685 C   0  0  0  0  0  0  0  0  0  0  0  0
   15.2066   35.6137   32.6739 N   0  0  0  0  0  0  0  0  0  0  0  0
   14.6736   36.2276   34.9182 C   0  0  0  0  0  0  0  0  0  0  0  0
   13.8227   37.0457   35.5781 N   0  0  0  0  0  0  0  0  0  0  0  0
   16.1638   34.7593   33.1547 C   0  0  0  0  0  0  0  0  0  0  0  0
   15.6517   35.3492   35.4131 C   0  0  0  0  0  0  0  0  0  0  0  0
   16.3792   34.6309   34.5043 N   0  0  0  0  0  0  0  0  0  0  0  0
   15.9003   35.1934   36.8090 N   0  0  0  0  0  0  0  0  0  0  0  0
    9.8138   44.9940   32.1501 H   0  0  0  0  0  0  0  0  0  0  0  0
   11.2873   46.1030   34.4971 H   0  0  0  0  0  0  0  0  0  0  0  0
   11.9166   45.7101   32.9705 H   0  0  0  0  0  0  0  0  0  0  0  0
    8.7799   45.7546   34.9591 H   0  0  0  0  0  0  0  0  0  0  0  0
    7.8393   44.9264   33.6999 H   0  0  0  0  0  0  0  0  0  0  0  0
    9.7187   47.7551   35.4701 H   0  0  0  0  0  0  0  0  0  0  0  0
    9.4264   49.4732   35.1758 H   0  0  0  0  0  0  0  0  0  0  0  0
    8.2748   46.6064   36.9908 H   0  0  0  0  0  0  0  0  0  0  0  0
    4.9966   50.3192   36.9724 H   0  0  0  0  0  0  0  0  0  0  0  0
    6.3458   46.5591   38.4979 H   0  0  0  0  0  0  0  0  0  0  0  0
    4.7095   48.4128   38.4958 H   0  0  0  0  0  0  0  0  0  0  0  0
    9.8242   40.7213   31.7564 H   0  0  0  0  0  0  0  0  0  0  0  0
   11.3872   41.5415   31.4672 H   0  0  0  0  0  0  0  0  0  0  0  0
   11.6986   39.5013   30.3467 H   0  0  0  0  0  0  0  0  0  0  0  0
   10.1095   38.2770   32.6629 H   0  0  0  0  0  0  0  0  0  0  0  0
   13.6672   37.4545   31.2213 H   0  0  0  0  0  0  0  0  0  0  0  0
    8.9779   37.4156   30.9533 H   0  0  0  0  0  0  0  0  0  0  0  0
   11.2861   36.3041   32.5176 H   0  0  0  0  0  0  0  0  0  0  0  0
   10.8690   35.6918   30.4657 H   0  0  0  0  0  0  0  0  0  0  0  0
   12.3356   38.3587   34.7440 H   0  0  0  0  0  0  0  0  0  0  0  0
   16.7572   34.1786   32.4621 H   0  0  0  0  0  0  0  0  0  0  0  0
   15.3530   35.7358   37.5138 H   0  0  0  0  0  0  0  0  0  0  0  0
   16.6361   34.5315   37.1415 H   0  0  0  0  0  0  0  0  0  0  0  0
  1  2  2  0
  1  3  1  0
  3  4  1  0
  4  5  1  0
  6  1  1  0
  7  6  1  0
  6  8  1  0
  8  9  1  0
  9 10  1  0
  9 11  2  0
 10 12  1  0
 12 13  1  0
 13 14  2  0
 15 13  1  0
 14 16  1  0
 14 17  1  0
 18 15  2  0
 16 19  1  0
 16 20  2  0
 17 21  2  0
 21 18  1  0
  4 22  2  0
  4 23  1  0
 24 23  1  0
 24 25  1  0
 25 26  1  0
 25 27  1  0
 26 28  1  0
 27 29  1  0
 27 30  1  0
 30 28  1  0
 28 31  1  0
 30 32  1  0
 33 31  1  0
 34 31  1  0
 35 33  2  0
 33 36  1  0
 37 34  2  0
 38 35  1  0
 36 39  2  0
 36 37  1  0
 40 38  2  0
 40 39  1  0
 39 41  1  0
  6 42  1  6
  7 43  1  0
  7 44  1  0
  8 45  1  0
  8 46  1  0
 12 47  1  0
 12 48  1  0
 15 49  1  0
 17 50  1  0
 18 51  1  0
 21 52  1  0
 24 53  1  0
 24 54  1  0
 25 55  1  0
 27 56  1  0
 28 57  1  0
 29 58  1  0
 30 59  1  0
 32 60  1  0
 34 61  1  0
 38 62  1  0
 41 63  1  0
 41 64  1  0
M  CHG  3   5  -1  16   1  19  -1
M  END
>  <EmbedRMS>  (54) 
0.08952162358683052

$$$$

     RDKit          3D

 64 67  0  0  0  0  0  0  0  0999 V2000
   10.2863   43.7709   33.8103 C   0  0  0  0  0  0  0  0  0  0  0  0
   11.4102   43.5817   34.3617 O   0  0  0  0  0  0  0  0  0  0  0  0
    9.3667   42.7309   33.7023 O   0  0  0  0  0  0  0  0  0  0  0  0
    9.8846   41.2329   34.2842 P   0  0  0  0  0  5  0  0  0  0  0  0
   10.3655   41.4675   35.8747 O   0  0  0  0  0  1  0  0  0  0  0  0
    9.9616   45.1113   33.2462 C   0  0  2  0  0  0  0  0  0  0  0  0
   11.0649   46.0484   33.4749 N   0  0  0  0  0  0  0  0  0  0  0  0
    8.6626   45.6560   33.8638 C   0  0  0  0  0  0  0  0  0  0  0  0
    8.3016   46.9795   33.2650 C   0  0  0  0  0  0  0  0  0  0  0  0
    7.8927   47.0383   31.9284 O   0  0  0  0  0  0  0  0  0  0  0  0
    8.4046   48.0304   33.9551 O   0  0  0  0  0  0  0  0  0  0  0  0
    7.7039   48.2635   31.2236 C   0  0  0  0  0  0  0  0  0  0  0  0
    9.0249   48.9719   31.0216 C   0  0  0  0  0  0  0  0  0  0  0  0
   10.1476   48.3321   30.4259 C   0  0  0  0  0  0  0  0  0  0  0  0
    9.1553   50.2934   31.4869 C   0  0  0  0  0  0  0  0  0  0  0  0
   10.0819   46.9887   29.9116 N   0  0  0  0  0  4  0  0  0  0  0  0
   11.3687   49.0259   30.3513 C   0  0  0  0  0  0  0  0  0  0  0  0
   10.3724   50.9678   31.3866 C   0  0  0  0  0  0  0  0  0  0  0  0
   11.2132   46.2056   29.8896 O   0  0  0  0  0  1  0  0  0  0  0  0
    9.0561   46.5739   29.3348 O   0  0  0  0  0  0  0  0  0  0  0  0
   11.4781   50.3336   30.8251 C   0  0  0  0  0  0  0  0  0  0  0  0
    8.8069   40.1904   34.2080 O   0  0  0  0  0  0  0  0  0  0  0  0
   11.2367   40.7897   33.3682 O   0  0  0  0  0  0  0  0  0  0  0  0
   10.9158   40.6890   31.9950 C   0  0  0  0  0  0  0  0  0  0  0  0
   11.5251   39.3873   31.4364 C   0  0  0  0  0  0  0  0  0  0  0  0
   12.7486   39.0880   32.0803 O   0  0  0  0  0  0  0  0  0  0  0  0
   10.6100   38.1910   31.6470 C   0  0  0  0  0  0  0  0  0  0  0  0
   12.9348   37.6808   32.0292 C   0  0  0  0  0  0  0  0  0  0  0  0
    9.6126   38.0874   30.6546 O   0  0  0  0  0  0  0  0  0  0  0  0
   11.5767   37.0133   31.7025 C   0  0  0  0  0  0  0  0  0  0  0  0
   13.4901   37.2165   33.3236 N   0  0  0  0  0  0  0  0  0  0  0  0
   11.6322   36.3231   30.4741 O   0  0  0  0  0  0  0  0  0  0  0  0
   14.4763   36.3266   33.5727 C   0  0  0  0  0  0  0  0  0  0  0  0
   13.1179   37.6307   34.5689 C   0  0  0  0  0  0  0  0  0  0  0  0
   15.2065   35.6135   32.6738 N   0  0  0  0  0  0  0  0  0  0  0  0
   14.6736   36.2272   34.9182 C   0  0  0  0  0  0  0  0  0  0  0  0
   13.8228   37.0453   35.5783 N   0  0  0  0  0  0  0  0  0  0  0  0
   16.1640   34.7592   33.1547 C   0  0  0  0  0  0  0  0  0  0  0  0
   15.6518   35.3491   35.4130 C   0  0  0  0  0  0  0  0  0  0  0  0
   16.3794   34.6309   34.5042 N   0  0  0  0  0  0  0  0  0  0  0  0
   15.9004   35.1933   36.8089 N   0  0  0  0  0  0  0  0  0  0  0  0
    9.8147   44.9913   32.1501 H   0  0  0  0  0  0  0  0  0  0  0  0
   11.2745   46.1181   34.4982 H   0  0  0  0  0  0  0  0  0  0  0  0
   11.9216   45.7054   32.9812 H   0  0  0  0  0  0  0  0  0  0  0  0
    7.8273   44.9485   33.6705 H   0  0  0  0  0  0  0  0  0  0  0  0
    8.7773   45.7570   34.9661 H   0  0  0  0  0  0  0  0  0  0  0  0
    6.9786   48.8961   31.7811 H   0  0  0  0  0  0  0  0  0  0  0  0
    7.2443   48.0527   30.2364 H   0  0  0  0  0  0  0  0  0  0  0  0
    8.3152   50.8024   31.9432 H   0  0  0  0  0  0  0  0  0  0  0  0
   12.2385   48.5579   29.9081 H   0  0  0  0  0  0  0  0  0  0  0  0
   10.4600   51.9827   31.7528 H   0  0  0  0  0  0  0  0  0  0  0  0
   12.4225   50.8576   30.7532 H   0  0  0  0  0  0  0  0  0  0  0  0
   11.3847   41.5508   31.4735 H   0  0  0  0  0  0  0  0  0  0  0  0
    9.8259   40.7206   31.7574 H   0  0  0  0  0  0  0  0  0  0  0  0
   11.7273   39.5287   30.3501 H   0  0  0  0  0  0  0  0  0  0  0  0
   10.1122   38.2732   32.6389 H   0  0  0  0  0  0  0  0  0  0  0  0
   13.6685   37.4592   31.2224 H   0  0  0  0  0  0  0  0  0  0  0  0
   10.0514   38.1111   29.7647 H   0  0  0  0  0  0  0  0  0  0  0  0
   11.2801   36.3129   32.5195 H   0  0  0  0  0  0  0  0  0  0  0  0
   10.8625   35.6960   30.4645 H   0  0  0  0  0  0  0  0  0  0  0  0
   12.3356   38.3581   34.7445 H   0  0  0  0  0  0  0  0  0  0  0  0
   16.7574   34.1787   32.4619 H   0  0  0  0  0  0  0  0  0  0  0  0
   15.3531   35.7355   37.5137 H   0  0  0  0  0  0  0  0  0  0  0  0
   16.6364   34.5315   37.1415 H   0  0  0  0  0  0  0  0  0  0  0  0
  1  2  2  0
  1  3  1  0
  3  4  1  0
  4  5  1  0
  6  1  1  0
  7  6  1  0
  6  8  1  0
  8  9  1  0
  9 10  1  0
  9 11  2  0
 10 12  1  0
 12 13  1  0
 13 14  2  0
 15 13  1  0
 14 16  1  0
 14 17  1  0
 18 15  2  0
 16 19  1  0
 16 20  2  0
 17 21  2  0
 21 18  1  0
  4 22  2  0
  4 23  1  0
 24 23  1  0
 24 25  1  0
 25 26  1  0
 25 27  1  0
 26 28  1  0
 27 29  1  0
 27 30  1  0
 30 28  1  0
 28 31  1  0
 30 32  1  0
 33 31  1  0
 34 31  1  0
 35 33  2  0
 33 36  1  0
 37 34  2  0
 38 35  1  0
 36 39  2  0
 36 37  1  0
 40 38  2  0
 40 39  1  0
 39 41  1  0
  6 42  1  6
  7 43  1  0
  7 44  1  0
  8 45  1  0
  8 46  1  0
 12 47  1  0
 12 48  1  0
 15 49  1  0
 17 50  1  0
 18 51  1  0
 21 52  1  0
 24 53  1  0
 24 54  1  0
 25 55  1  0
 27 56  1  0
 28 57  1  0
 29 58  1  0
 30 59  1  0
 32 60  1  0
 34 61  1  0
 38 62  1  0
 41 63  1  0
 41 64  1  0
M  CHG  3   5  -1  16   1  19  -1
M  END
>  <EmbedRMS>  (55) 
0.08862966616724788

$$$$

     RDKit          3D

 64 67  0  0  0  0  0  0  0  0999 V2000
   10.2861   43.7720   33.8046 C   0  0  0  0  0  0  0  0  0  0  0  0
   11.4086   43.5885   34.3611 O   0  0  0  0  0  0  0  0  0  0  0  0
    9.3676   42.7308   33.6993 O   0  0  0  0  0  0  0  0  0  0  0  0
    9.8854   41.2342   34.2843 P   0  0  0  0  0  5  0  0  0  0  0  0
   10.3651   41.4702   35.8750 O   0  0  0  0  0  1  0  0  0  0  0  0
    9.9530   45.1148   33.2533 C   0  0  2  0  0  0  0  0  0  0  0  0
   11.0712   46.0333   33.4767 N   0  0  0  0  0  0  0  0  0  0  0  0
    8.6602   45.6657   33.8885 C   0  0  0  0  0  0  0  0  0  0  0  0
    8.7932   45.8671   35.3688 C   0  0  0  0  0  0  0  0  0  0  0  0
    9.3483   47.0564   35.8548 O   0  0  0  0  0  0  0  0  0  0  0  0
    8.4356   44.9522   36.1604 O   0  0  0  0  0  0  0  0  0  0  0  0
    9.5231   47.3241   37.2460 C   0  0  0  0  0  0  0  0  0  0  0  0
    8.1975   47.5529   37.9422 C   0  0  0  0  0  0  0  0  0  0  0  0
    7.9934   47.1896   39.3004 C   0  0  0  0  0  0  0  0  0  0  0  0
    7.1451   48.1655   37.2340 C   0  0  0  0  0  0  0  0  0  0  0  0
    9.0559   46.6639   40.1137 N   0  0  0  0  0  4  0  0  0  0  0  0
    6.7219   47.3622   39.8744 C   0  0  0  0  0  0  0  0  0  0  0  0
    5.8960   48.3469   37.8289 C   0  0  0  0  0  0  0  0  0  0  0  0
    8.7736   45.7540   41.1065 O   0  0  0  0  0  1  0  0  0  0  0  0
   10.1932   47.1768   40.0742 O   0  0  0  0  0  0  0  0  0  0  0  0
    5.6811   47.9344   39.1422 C   0  0  0  0  0  0  0  0  0  0  0  0
    8.8081   40.1911   34.2081 O   0  0  0  0  0  0  0  0  0  0  0  0
   11.2382   40.7904   33.3698 O   0  0  0  0  0  0  0  0  0  0  0  0
   10.9190   40.6905   31.9962 C   0  0  0  0  0  0  0  0  0  0  0  0
   11.5176   39.3824   31.4412 C   0  0  0  0  0  0  0  0  0  0  0  0
   12.7495   39.0892   32.0755 O   0  0  0  0  0  0  0  0  0  0  0  0
   10.6036   38.1899   31.6659 C   0  0  0  0  0  0  0  0  0  0  0  0
   12.9401   37.6833   32.0276 C   0  0  0  0  0  0  0  0  0  0  0  0
    9.6377   38.0785   30.6474 O   0  0  0  0  0  0  0  0  0  0  0  0
   11.5803   37.0203   31.6937 C   0  0  0  0  0  0  0  0  0  0  0  0
   13.4902   37.2177   33.3237 N   0  0  0  0  0  0  0  0  0  0  0  0
   11.6117   36.3193   30.4680 O   0  0  0  0  0  0  0  0  0  0  0  0
   14.4759   36.3271   33.5731 C   0  0  0  0  0  0  0  0  0  0  0  0
   13.1176   37.6317   34.5688 C   0  0  0  0  0  0  0  0  0  0  0  0
   15.2064   35.6141   32.6742 N   0  0  0  0  0  0  0  0  0  0  0  0
   14.6729   36.2274   34.9184 C   0  0  0  0  0  0  0  0  0  0  0  0
   13.8221   37.0457   35.5783 N   0  0  0  0  0  0  0  0  0  0  0  0
   16.1637   34.7597   33.1549 C   0  0  0  0  0  0  0  0  0  0  0  0
   15.6514   35.3493   35.4133 C   0  0  0  0  0  0  0  0  0  0  0  0
   16.3791   34.6312   34.5044 N   0  0  0  0  0  0  0  0  0  0  0  0
   15.9001   35.1935   36.8091 N   0  0  0  0  0  0  0  0  0  0  0  0
    9.7835   45.0051   32.1585 H   0  0  0  0  0  0  0  0  0  0  0  0
   11.8827   45.7126   32.8986 H   0  0  0  0  0  0  0  0  0  0  0  0
   10.8099   46.9716   33.0949 H   0  0  0  0  0  0  0  0  0  0  0  0
    8.4031   46.6384   33.4164 H   0  0  0  0  0  0  0  0  0  0  0  0
    7.8142   44.9741   33.6812 H   0  0  0  0  0  0  0  0  0  0  0  0
   10.0760   46.4726   37.6961 H   0  0  0  0  0  0  0  0  0  0  0  0
   10.1431   48.2379   37.3569 H   0  0  0  0  0  0  0  0  0  0  0  0
    7.2845   48.4921   36.2110 H   0  0  0  0  0  0  0  0  0  0  0  0
    6.5434   47.0789   40.9040 H   0  0  0  0  0  0  0  0  0  0  0  0
    5.0915   48.8053   37.2682 H   0  0  0  0  0  0  0  0  0  0  0  0
    4.7102   48.0732   39.6001 H   0  0  0  0  0  0  0  0  0  0  0  0
   11.4000   41.5454   31.4747 H   0  0  0  0  0  0  0  0  0  0  0  0
    9.8311   40.7397   31.7560 H   0  0  0  0  0  0  0  0  0  0  0  0
   11.6990   39.5092   30.3489 H   0  0  0  0  0  0  0  0  0  0  0  0
   10.1130   38.2589   32.6664 H   0  0  0  0  0  0  0  0  0  0  0  0
   13.6800   37.4626   31.2265 H   0  0  0  0  0  0  0  0  0  0  0  0
    8.8953   38.6909   30.8891 H   0  0  0  0  0  0  0  0  0  0  0  0
   11.2830   36.3060   32.4929 H   0  0  0  0  0  0  0  0  0  0  0  0
   11.8859   36.9589   29.7593 H   0  0  0  0  0  0  0  0  0  0  0  0
   12.3360   38.3600   34.7441 H   0  0  0  0  0  0  0  0  0  0  0  0
   16.7572   34.1793   32.4621 H   0  0  0  0  0  0  0  0  0  0  0  0
   15.3528   35.7356   37.5140 H   0  0  0  0  0  0  0  0  0  0  0  0
   16.6362   34.5318   37.1416 H   0  0  0  0  0  0  0  0  0  0  0  0
  1  2  2  0
  1  3  1  0
  3  4  1  0
  4  5  1  0
  6  1  1  0
  7  6  1  0
  6  8  1  0
  8  9  1  0
  9 10  1  0
  9 11  2  0
 10 12  1  0
 12 13  1  0
 13 14  2  0
 15 13  1  0
 14 16  1  0
 14 17  1  0
 18 15  2  0
 16 19  1  0
 16 20  2  0
 17 21  2  0
 21 18  1  0
  4 22  2  0
  4 23  1  0
 24 23  1  0
 24 25  1  0
 25 26  1  0
 25 27  1  0
 26 28  1  0
 27 29  1  0
 27 30  1  0
 30 28  1  0
 28 31  1  0
 30 32  1  0
 33 31  1  0
 34 31  1  0
 35 33  2  0
 33 36  1  0
 37 34  2  0
 38 35  1  0
 36 39  2  0
 36 37  1  0
 40 38  2  0
 40 39  1  0
 39 41  1  0
  6 42  1  6
  7 43  1  0
  7 44  1  0
  8 45  1  0
  8 46  1  0
 12 47  1  0
 12 48  1  0
 15 49  1  0
 17 50  1  0
 18 51  1  0
 21 52  1  0
 24 53  1  0
 24 54  1  0
 25 55  1  0
 27 56  1  0
 28 57  1  0
 29 58  1  0
 30 59  1  0
 32 60  1  0
 34 61  1  0
 38 62  1  0
 41 63  1  0
 41 64  1  0
M  CHG  3   5  -1  16   1  19  -1
M  END
>  <EmbedRMS>  (56) 
0.08833516170503271

$$$$

     RDKit          3D

 64 67  0  0  0  0  0  0  0  0999 V2000
   10.2883   43.7705   33.8001 C   0  0  0  0  0  0  0  0  0  0  0  0
   11.4102   43.5873   34.3577 O   0  0  0  0  0  0  0  0  0  0  0  0
    9.3684   42.7303   33.6971 O   0  0  0  0  0  0  0  0  0  0  0  0
    9.8849   41.2342   34.2845 P   0  0  0  0  0  5  0  0  0  0  0  0
   10.3646   41.4717   35.8750 O   0  0  0  0  0  1  0  0  0  0  0  0
    9.9516   45.1157   33.2565 C   0  0  2  0  0  0  0  0  0  0  0  0
   11.0697   46.0342   33.4791 N   0  0  0  0  0  0  0  0  0  0  0  0
    8.6619   45.6629   33.9020 C   0  0  0  0  0  0  0  0  0  0  0  0
    8.8023   45.8583   35.3832 C   0  0  0  0  0  0  0  0  0  0  0  0
    8.7896   44.7408   36.2250 O   0  0  0  0  0  0  0  0  0  0  0  0
    8.9634   47.0185   35.8508 O   0  0  0  0  0  0  0  0  0  0  0  0
    8.8481   44.8205   37.6467 C   0  0  0  0  0  0  0  0  0  0  0  0
    7.5078   45.2319   38.2060 C   0  0  0  0  0  0  0  0  0  0  0  0
    6.4298   44.3143   38.3459 C   0  0  0  0  0  0  0  0  0  0  0  0
    7.3300   46.5680   38.6093 C   0  0  0  0  0  0  0  0  0  0  0  0
    6.5364   42.9365   37.9394 N   0  0  0  0  0  4  0  0  0  0  0  0
    5.2245   44.7598   38.9184 C   0  0  0  0  0  0  0  0  0  0  0  0
    6.1197   46.9914   39.1595 C   0  0  0  0  0  0  0  0  0  0  0  0
    5.7942   41.9723   38.5824 O   0  0  0  0  0  1  0  0  0  0  0  0
    7.1620   42.6193   36.9074 O   0  0  0  0  0  0  0  0  0  0  0  0
    5.0707   46.0881   39.3180 C   0  0  0  0  0  0  0  0  0  0  0  0
    8.8069   40.1918   34.2094 O   0  0  0  0  0  0  0  0  0  0  0  0
   11.2366   40.7886   33.3692 O   0  0  0  0  0  0  0  0  0  0  0  0
   10.9158   40.6882   31.9958 C   0  0  0  0  0  0  0  0  0  0  0  0
   11.5261   39.3872   31.4367 C   0  0  0  0  0  0  0  0  0  0  0  0
   12.7493   39.0893   32.0818 O   0  0  0  0  0  0  0  0  0  0  0  0
   10.6123   38.1894   31.6461 C   0  0  0  0  0  0  0  0  0  0  0  0
   12.9373   37.6827   32.0302 C   0  0  0  0  0  0  0  0  0  0  0  0
    9.6152   38.0841   30.6536 O   0  0  0  0  0  0  0  0  0  0  0  0
   11.5792   37.0137   31.7015 C   0  0  0  0  0  0  0  0  0  0  0  0
   13.4906   37.2170   33.3243 N   0  0  0  0  0  0  0  0  0  0  0  0
   11.6215   36.3252   30.4727 O   0  0  0  0  0  0  0  0  0  0  0  0
   14.4764   36.3267   33.5731 C   0  0  0  0  0  0  0  0  0  0  0  0
   13.1181   37.6308   34.5695 C   0  0  0  0  0  0  0  0  0  0  0  0
   15.2065   35.6137   32.6740 N   0  0  0  0  0  0  0  0  0  0  0  0
   14.6737   36.2270   34.9185 C   0  0  0  0  0  0  0  0  0  0  0  0
   13.8230   37.0450   35.5788 N   0  0  0  0  0  0  0  0  0  0  0  0
   16.1638   34.7592   33.1546 C   0  0  0  0  0  0  0  0  0  0  0  0
   15.6520   35.3488   35.4131 C   0  0  0  0  0  0  0  0  0  0  0  0
   16.3794   34.6307   34.5041 N   0  0  0  0  0  0  0  0  0  0  0  0
   15.9008   35.1930   36.8089 N   0  0  0  0  0  0  0  0  0  0  0  0
    9.7763   45.0111   32.1620 H   0  0  0  0  0  0  0  0  0  0  0  0
   10.8056   46.9740   33.1030 H   0  0  0  0  0  0  0  0  0  0  0  0
   11.8788   45.7167   32.8959 H   0  0  0  0  0  0  0  0  0  0  0  0
    8.3919   46.6294   33.4229 H   0  0  0  0  0  0  0  0  0  0  0  0
    7.8199   44.9630   33.7107 H   0  0  0  0  0  0  0  0  0  0  0  0
    9.1330   43.8276   38.0534 H   0  0  0  0  0  0  0  0  0  0  0  0
    9.6535   45.5235   37.9551 H   0  0  0  0  0  0  0  0  0  0  0  0
    8.1352   47.2854   38.5071 H   0  0  0  0  0  0  0  0  0  0  0  0
    4.3915   44.0789   39.0405 H   0  0  0  0  0  0  0  0  0  0  0  0
    5.9971   48.0215   39.4688 H   0  0  0  0  0  0  0  0  0  0  0  0
    4.1340   46.4183   39.7487 H   0  0  0  0  0  0  0  0  0  0  0  0
    9.8259   40.7188   31.7582 H   0  0  0  0  0  0  0  0  0  0  0  0
   11.3841   41.5505   31.4748 H   0  0  0  0  0  0  0  0  0  0  0  0
   11.7289   39.5293   30.3506 H   0  0  0  0  0  0  0  0  0  0  0  0
   10.1137   38.2720   32.6379 H   0  0  0  0  0  0  0  0  0  0  0  0
   13.6725   37.4633   31.2242 H   0  0  0  0  0  0  0  0  0  0  0  0
   10.0541   38.1080   29.7638 H   0  0  0  0  0  0  0  0  0  0  0  0
   11.2645   36.3135   32.5109 H   0  0  0  0  0  0  0  0  0  0  0  0
   12.1551   35.5034   30.6317 H   0  0  0  0  0  0  0  0  0  0  0  0
   12.3358   38.3581   34.7454 H   0  0  0  0  0  0  0  0  0  0  0  0
   16.7574   34.1789   32.4618 H   0  0  0  0  0  0  0  0  0  0  0  0
   15.3534   35.7351   37.5138 H   0  0  0  0  0  0  0  0  0  0  0  0
   16.6367   34.5312   37.1415 H   0  0  0  0  0  0  0  0  0  0  0  0
  1  2  2  0
  1  3  1  0
  3  4  1  0
  4  5  1  0
  6  1  1  0
  7  6  1  0
  6  8  1  0
  8  9  1  0
  9 10  1  0
  9 11  2  0
 10 12  1  0
 12 13  1  0
 13 14  2  0
 15 13  1  0
 14 16  1  0
 14 17  1  0
 18 15  2  0
 16 19  1  0
 16 20  2  0
 17 21  2  0
 21 18  1  0
  4 22  2  0
  4 23  1  0
 24 23  1  0
 24 25  1  0
 25 26  1  0
 25 27  1  0
 26 28  1  0
 27 29  1  0
 27 30  1  0
 30 28  1  0
 28 31  1  0
 30 32  1  0
 33 31  1  0
 34 31  1  0
 35 33  2  0
 33 36  1  0
 37 34  2  0
 38 35  1  0
 36 39  2  0
 36 37  1  0
 40 38  2  0
 40 39  1  0
 39 41  1  0
  6 42  1  6
  7 43  1  0
  7 44  1  0
  8 45  1  0
  8 46  1  0
 12 47  1  0
 12 48  1  0
 15 49  1  0
 17 50  1  0
 18 51  1  0
 21 52  1  0
 24 53  1  0
 24 54  1  0
 25 55  1  0
 27 56  1  0
 28 57  1  0
 29 58  1  0
 30 59  1  0
 32 60  1  0
 34 61  1  0
 38 62  1  0
 41 63  1  0
 41 64  1  0
M  CHG  3   5  -1  16   1  19  -1
M  END
>  <EmbedRMS>  (57) 
0.08801938641207593

$$$$

     RDKit          3D

 64 67  0  0  0  0  0  0  0  0999 V2000
   10.2868   43.7697   33.8114 C   0  0  0  0  0  0  0  0  0  0  0  0
   11.4130   43.5779   34.3556 O   0  0  0  0  0  0  0  0  0  0  0  0
    9.3658   42.7312   33.7049 O   0  0  0  0  0  0  0  0  0  0  0  0
    9.8841   41.2325   34.2840 P   0  0  0  0  0  5  0  0  0  0  0  0
   10.3654   41.4652   35.8744 O   0  0  0  0  0  1  0  0  0  0  0  0
    9.9682   45.1087   33.2400 C   0  0  2  0  0  0  0  0  0  0  0  0
   11.0590   46.0572   33.4803 N   0  0  0  0  0  0  0  0  0  0  0  0
    8.6301   45.6637   33.7671 C   0  0  0  0  0  0  0  0  0  0  0  0
    8.6598   46.0316   35.2237 C   0  0  0  0  0  0  0  0  0  0  0  0
    9.0282   45.0785   36.1816 O   0  0  0  0  0  0  0  0  0  0  0  0
    8.3167   47.1932   35.5756 O   0  0  0  0  0  0  0  0  0  0  0  0
    8.9931   45.3305   37.5859 C   0  0  0  0  0  0  0  0  0  0  0  0
   10.0407   46.3481   37.9818 C   0  0  0  0  0  0  0  0  0  0  0  0
   11.4301   46.1454   37.7504 C   0  0  0  0  0  0  0  0  0  0  0  0
    9.6105   47.5636   38.5468 C   0  0  0  0  0  0  0  0  0  0  0  0
   11.9468   44.9229   37.1927 N   0  0  0  0  0  4  0  0  0  0  0  0
   12.3324   47.1778   38.0655 C   0  0  0  0  0  0  0  0  0  0  0  0
   10.5259   48.5666   38.8655 C   0  0  0  0  0  0  0  0  0  0  0  0
   13.1276   44.9372   36.4857 O   0  0  0  0  0  1  0  0  0  0  0  0
   11.4450   43.8210   37.4927 O   0  0  0  0  0  0  0  0  0  0  0  0
   11.8834   48.3760   38.6210 C   0  0  0  0  0  0  0  0  0  0  0  0
    8.8063   40.1902   34.2076 O   0  0  0  0  0  0  0  0  0  0  0  0
   11.2359   40.7906   33.3662 O   0  0  0  0  0  0  0  0  0  0  0  0
   10.9129   40.6844   31.9934 C   0  0  0  0  0  0  0  0  0  0  0  0
   11.5172   39.3775   31.4397 C   0  0  0  0  0  0  0  0  0  0  0  0
   12.7475   39.0871   32.0758 O   0  0  0  0  0  0  0  0  0  0  0  0
   10.6068   38.1851   31.6657 C   0  0  0  0  0  0  0  0  0  0  0  0
   12.9371   37.6813   32.0291 C   0  0  0  0  0  0  0  0  0  0  0  0
    9.6404   38.0882   30.6475 O   0  0  0  0  0  0  0  0  0  0  0  0
   11.5789   37.0135   31.7045 C   0  0  0  0  0  0  0  0  0  0  0  0
   13.4915   37.2183   33.3239 N   0  0  0  0  0  0  0  0  0  0  0  0
   11.6125   36.3390   30.4674 O   0  0  0  0  0  0  0  0  0  0  0  0
   14.4765   36.3272   33.5730 C   0  0  0  0  0  0  0  0  0  0  0  0
   13.1184   37.6318   34.5691 C   0  0  0  0  0  0  0  0  0  0  0  0
   15.2066   35.6140   32.6740 N   0  0  0  0  0  0  0  0  0  0  0  0
   14.6735   36.2274   34.9184 C   0  0  0  0  0  0  0  0  0  0  0  0
   13.8228   37.0456   35.5785 N   0  0  0  0  0  0  0  0  0  0  0  0
   16.1637   34.7593   33.1548 C   0  0  0  0  0  0  0  0  0  0  0  0
   15.6517   35.3491   35.4132 C   0  0  0  0  0  0  0  0  0  0  0  0
   16.3792   34.6308   34.5043 N   0  0  0  0  0  0  0  0  0  0  0  0
   15.9003   35.1932   36.8090 N   0  0  0  0  0  0  0  0  0  0  0  0
    9.8604   44.9765   32.1409 H   0  0  0  0  0  0  0  0  0  0  0  0
   11.9183   45.7279   32.9818 H   0  0  0  0  0  0  0  0  0  0  0  0
   11.2788   46.1124   34.5019 H   0  0  0  0  0  0  0  0  0  0  0  0
    7.8207   44.9200   33.6038 H   0  0  0  0  0  0  0  0  0  0  0  0
    8.3654   46.5636   33.1692 H   0  0  0  0  0  0  0  0  0  0  0  0
    9.1608   44.3832   38.1364 H   0  0  0  0  0  0  0  0  0  0  0  0
    7.9708   45.6670   37.8666 H   0  0  0  0  0  0  0  0  0  0  0  0
    8.5585   47.7447   38.7299 H   0  0  0  0  0  0  0  0  0  0  0  0
   13.3938   47.0490   37.8958 H   0  0  0  0  0  0  0  0  0  0  0  0
   10.1801   49.4976   39.2961 H   0  0  0  0  0  0  0  0  0  0  0  0
   12.5913   49.1577   38.8651 H   0  0  0  0  0  0  0  0  0  0  0  0
    9.8227   40.7189   31.7573 H   0  0  0  0  0  0  0  0  0  0  0  0
   11.3843   41.5417   31.4670 H   0  0  0  0  0  0  0  0  0  0  0  0
   11.7004   39.5021   30.3474 H   0  0  0  0  0  0  0  0  0  0  0  0
   10.1096   38.2750   32.6606 H   0  0  0  0  0  0  0  0  0  0  0  0
   13.6713   37.4595   31.2228 H   0  0  0  0  0  0  0  0  0  0  0  0
    9.0033   37.3835   30.9350 H   0  0  0  0  0  0  0  0  0  0  0  0
   11.2706   36.3049   32.5088 H   0  0  0  0  0  0  0  0  0  0  0  0
   12.1445   35.5138   30.6141 H   0  0  0  0  0  0  0  0  0  0  0  0
   12.3363   38.3594   34.7445 H   0  0  0  0  0  0  0  0  0  0  0  0
   16.7570   34.1787   32.4620 H   0  0  0  0  0  0  0  0  0  0  0  0
   15.3532   35.7356   37.5139 H   0  0  0  0  0  0  0  0  0  0  0  0
   16.6362   34.5314   37.1415 H   0  0  0  0  0  0  0  0  0  0  0  0
  1  2  2  0
  1  3  1  0
  3  4  1  0
  4  5  1  0
  6  1  1  0
  7  6  1  0
  6  8  1  0
  8  9  1  0
  9 10  1  0
  9 11  2  0
 10 12  1  0
 12 13  1  0
 13 14  2  0
 15 13  1  0
 14 16  1  0
 14 17  1  0
 18 15  2  0
 16 19  1  0
 16 20  2  0
 17 21  2  0
 21 18  1  0
  4 22  2  0
  4 23  1  0
 24 23  1  0
 24 25  1  0
 25 26  1  0
 25 27  1  0
 26 28  1  0
 27 29  1  0
 27 30  1  0
 30 28  1  0
 28 31  1  0
 30 32  1  0
 33 31  1  0
 34 31  1  0
 35 33  2  0
 33 36  1  0
 37 34  2  0
 38 35  1  0
 36 39  2  0
 36 37  1  0
 40 38  2  0
 40 39  1  0
 39 41  1  0
  6 42  1  6
  7 43  1  0
  7 44  1  0
  8 45  1  0
  8 46  1  0
 12 47  1  0
 12 48  1  0
 15 49  1  0
 17 50  1  0
 18 51  1  0
 21 52  1  0
 24 53  1  0
 24 54  1  0
 25 55  1  0
 27 56  1  0
 28 57  1  0
 29 58  1  0
 30 59  1  0
 32 60  1  0
 34 61  1  0
 38 62  1  0
 41 63  1  0
 41 64  1  0
M  CHG  3   5  -1  16   1  19  -1
M  END
>  <EmbedRMS>  (58) 
0.0896176731270542

$$$$

     RDKit          3D

 64 67  0  0  0  0  0  0  0  0999 V2000
   10.2864   43.7709   33.8098 C   0  0  0  0  0  0  0  0  0  0  0  0
   11.4101   43.5817   34.3616 O   0  0  0  0  0  0  0  0  0  0  0  0
    9.3672   42.7306   33.7016 O   0  0  0  0  0  0  0  0  0  0  0  0
    9.8851   41.2327   34.2837 P   0  0  0  0  0  5  0  0  0  0  0  0
   10.3652   41.4675   35.8745 O   0  0  0  0  0  1  0  0  0  0  0  0
    9.9606   45.1124   33.2474 C   0  0  2  0  0  0  0  0  0  0  0  0
   11.0655   46.0480   33.4748 N   0  0  0  0  0  0  0  0  0  0  0  0
    8.6651   45.6566   33.8721 C   0  0  0  0  0  0  0  0  0  0  0  0
    8.2772   46.9646   33.2561 C   0  0  0  0  0  0  0  0  0  0  0  0
    8.7071   48.1584   33.8490 O   0  0  0  0  0  0  0  0  0  0  0  0
    7.5937   46.9789   32.1960 O   0  0  0  0  0  0  0  0  0  0  0  0
    8.4139   49.4526   33.3199 C   0  0  0  0  0  0  0  0  0  0  0  0
    7.1341   50.0442   33.8809 C   0  0  0  0  0  0  0  0  0  0  0  0
    6.8630   51.4347   33.7549 C   0  0  0  0  0  0  0  0  0  0  0  0
    6.1962   49.2274   34.5480 C   0  0  0  0  0  0  0  0  0  0  0  0
    7.7584   52.3215   33.0586 N   0  0  0  0  0  4  0  0  0  0  0  0
    5.6950   51.9649   34.3331 C   0  0  0  0  0  0  0  0  0  0  0  0
    5.0365   49.7734   35.0993 C   0  0  0  0  0  0  0  0  0  0  0  0
    8.3534   51.9348   31.8803 O   0  0  0  0  0  1  0  0  0  0  0  0
    7.8714   53.5099   33.4246 O   0  0  0  0  0  0  0  0  0  0  0  0
    4.7891   51.1393   34.9973 C   0  0  0  0  0  0  0  0  0  0  0  0
    8.8075   40.1901   34.2071 O   0  0  0  0  0  0  0  0  0  0  0  0
   11.2381   40.7897   33.3686 O   0  0  0  0  0  0  0  0  0  0  0  0
   10.9194   40.6894   31.9948 C   0  0  0  0  0  0  0  0  0  0  0  0
   11.5171   39.3800   31.4396 C   0  0  0  0  0  0  0  0  0  0  0  0
   12.7479   39.0861   32.0733 O   0  0  0  0  0  0  0  0  0  0  0  0
   10.6031   38.1891   31.6666 C   0  0  0  0  0  0  0  0  0  0  0  0
   12.9335   37.6796   32.0279 C   0  0  0  0  0  0  0  0  0  0  0  0
    9.6397   38.0776   30.6456 O   0  0  0  0  0  0  0  0  0  0  0  0
   11.5739   37.0154   31.7057 C   0  0  0  0  0  0  0  0  0  0  0  0
   13.4903   37.2178   33.3231 N   0  0  0  0  0  0  0  0  0  0  0  0
   11.6211   36.3376   30.4694 O   0  0  0  0  0  0  0  0  0  0  0  0
   14.4761   36.3273   33.5725 C   0  0  0  0  0  0  0  0  0  0  0  0
   13.1179   37.6316   34.5684 C   0  0  0  0  0  0  0  0  0  0  0  0
   15.2063   35.6139   32.6737 N   0  0  0  0  0  0  0  0  0  0  0  0
   14.6734   36.2277   34.9180 C   0  0  0  0  0  0  0  0  0  0  0  0
   13.8225   37.0459   35.5779 N   0  0  0  0  0  0  0  0  0  0  0  0
   16.1636   34.7594   33.1546 C   0  0  0  0  0  0  0  0  0  0  0  0
   15.6515   35.3494   35.4129 C   0  0  0  0  0  0  0  0  0  0  0  0
   16.3791   34.6311   34.5041 N   0  0  0  0  0  0  0  0  0  0  0  0
   15.9001   35.1935   36.8088 N   0  0  0  0  0  0  0  0  0  0  0  0
    9.8093   44.9955   32.1513 H   0  0  0  0  0  0  0  0  0  0  0  0
   11.2750   46.1189   34.4981 H   0  0  0  0  0  0  0  0  0  0  0  0
   11.9220   45.7019   32.9829 H   0  0  0  0  0  0  0  0  0  0  0  0
    8.7975   45.7927   34.9679 H   0  0  0  0  0  0  0  0  0  0  0  0
    7.8357   44.9314   33.7193 H   0  0  0  0  0  0  0  0  0  0  0  0
    9.2604   50.1172   33.5934 H   0  0  0  0  0  0  0  0  0  0  0  0
    8.3598   49.4107   32.2109 H   0  0  0  0  0  0  0  0  0  0  0  0
    6.3546   48.1650   34.6625 H   0  0  0  0  0  0  0  0  0  0  0  0
    5.4755   53.0221   34.2522 H   0  0  0  0  0  0  0  0  0  0  0  0
    4.3297   49.1344   35.6131 H   0  0  0  0  0  0  0  0  0  0  0  0
    3.8901   51.5597   35.4295 H   0  0  0  0  0  0  0  0  0  0  0  0
    9.8316   40.7398   31.7544 H   0  0  0  0  0  0  0  0  0  0  0  0
   11.4014   41.5436   31.4731 H   0  0  0  0  0  0  0  0  0  0  0  0
   11.6982   39.5042   30.3470 H   0  0  0  0  0  0  0  0  0  0  0  0
   10.1090   38.2631   32.6649 H   0  0  0  0  0  0  0  0  0  0  0  0
   13.6656   37.4540   31.2207 H   0  0  0  0  0  0  0  0  0  0  0  0
    8.8965   38.6899   30.8852 H   0  0  0  0  0  0  0  0  0  0  0  0
   11.2846   36.3059   32.5175 H   0  0  0  0  0  0  0  0  0  0  0  0
   10.8524   35.7094   30.4590 H   0  0  0  0  0  0  0  0  0  0  0  0
   12.3353   38.3588   34.7439 H   0  0  0  0  0  0  0  0  0  0  0  0
   16.7570   34.1788   32.4619 H   0  0  0  0  0  0  0  0  0  0  0  0
   16.6360   34.5316   37.1413 H   0  0  0  0  0  0  0  0  0  0  0  0
   15.3529   35.7359   37.5136 H   0  0  0  0  0  0  0  0  0  0  0  0
  1  2  2  0
  1  3  1  0
  3  4  1  0
  4  5  1  0
  6  1  1  0
  7  6  1  0
  6  8  1  0
  8  9  1  0
  9 10  1  0
  9 11  2  0
 10 12  1  0
 12 13  1  0
 13 14  2  0
 15 13  1  0
 14 16  1  0
 14 17  1  0
 18 15  2  0
 16 19  1  0
 16 20  2  0
 17 21  2  0
 21 18  1  0
  4 22  2  0
  4 23  1  0
 24 23  1  0
 24 25  1  0
 25 26  1  0
 25 27  1  0
 26 28  1  0
 27 29  1  0
 27 30  1  0
 30 28  1  0
 28 31  1  0
 30 32  1  0
 33 31  1  0
 34 31  1  0
 35 33  2  0
 33 36  1  0
 37 34  2  0
 38 35  1  0
 36 39  2  0
 36 37  1  0
 40 38  2  0
 40 39  1  0
 39 41  1  0
  6 42  1  6
  7 43  1  0
  7 44  1  0
  8 45  1  0
  8 46  1  0
 12 47  1  0
 12 48  1  0
 15 49  1  0
 17 50  1  0
 18 51  1  0
 21 52  1  0
 24 53  1  0
 24 54  1  0
 25 55  1  0
 27 56  1  0
 28 57  1  0
 29 58  1  0
 30 59  1  0
 32 60  1  0
 34 61  1  0
 38 62  1  0
 41 63  1  0
 41 64  1  0
M  CHG  3   5  -1  16   1  19  -1
M  END
>  <EmbedRMS>  (59) 
0.08996407632880944

$$$$

     RDKit          3D

 64 67  0  0  0  0  0  0  0  0999 V2000
   10.2860   43.7719   33.8047 C   0  0  0  0  0  0  0  0  0  0  0  0
   11.4085   43.5885   34.3612 O   0  0  0  0  0  0  0  0  0  0  0  0
    9.3677   42.7307   33.6990 O   0  0  0  0  0  0  0  0  0  0  0  0
    9.8858   41.2339   34.2835 P   0  0  0  0  0  5  0  0  0  0  0  0
   10.3656   41.4699   35.8742 O   0  0  0  0  0  1  0  0  0  0  0  0
    9.9530   45.1147   33.2533 C   0  0  2  0  0  0  0  0  0  0  0  0
   11.0714   46.0331   33.4766 N   0  0  0  0  0  0  0  0  0  0  0  0
    8.6601   45.6655   33.8888 C   0  0  0  0  0  0  0  0  0  0  0  0
    8.7914   45.8587   35.3705 C   0  0  0  0  0  0  0  0  0  0  0  0
    9.4252   47.0037   35.8599 O   0  0  0  0  0  0  0  0  0  0  0  0
    8.3632   44.9726   36.1596 O   0  0  0  0  0  0  0  0  0  0  0  0
    9.6268   47.2363   37.2492 C   0  0  0  0  0  0  0  0  0  0  0  0
   10.3516   48.5428   37.4358 C   0  0  0  0  0  0  0  0  0  0  0  0
    9.6670   49.7839   37.5197 C   0  0  0  0  0  0  0  0  0  0  0  0
   11.7553   48.5238   37.5209 C   0  0  0  0  0  0  0  0  0  0  0  0
    8.2375   49.8726   37.3788 N   0  0  0  0  0  4  0  0  0  0  0  0
   10.4072   50.9590   37.7466 C   0  0  0  0  0  0  0  0  0  0  0  0
   12.4718   49.7031   37.7286 C   0  0  0  0  0  0  0  0  0  0  0  0
    7.5806   49.1257   36.4285 O   0  0  0  0  0  1  0  0  0  0  0  0
    7.6021   50.7550   37.9923 O   0  0  0  0  0  0  0  0  0  0  0  0
   11.7985   50.9172   37.8492 C   0  0  0  0  0  0  0  0  0  0  0  0
    8.8082   40.1911   34.2077 O   0  0  0  0  0  0  0  0  0  0  0  0
   11.2383   40.7899   33.3684 O   0  0  0  0  0  0  0  0  0  0  0  0
   10.9189   40.6887   31.9947 C   0  0  0  0  0  0  0  0  0  0  0  0
   11.5181   39.3800   31.4397 C   0  0  0  0  0  0  0  0  0  0  0  0
   12.7485   39.0875   32.0749 O   0  0  0  0  0  0  0  0  0  0  0  0
   10.6054   38.1875   31.6656 C   0  0  0  0  0  0  0  0  0  0  0  0
   12.9361   37.6816   32.0288 C   0  0  0  0  0  0  0  0  0  0  0  0
    9.6423   38.0738   30.6445 O   0  0  0  0  0  0  0  0  0  0  0  0
   11.5765   37.0158   31.7046 C   0  0  0  0  0  0  0  0  0  0  0  0
   13.4908   37.2182   33.3237 N   0  0  0  0  0  0  0  0  0  0  0  0
   11.6102   36.3399   30.4680 O   0  0  0  0  0  0  0  0  0  0  0  0
   14.4762   36.3273   33.5728 C   0  0  0  0  0  0  0  0  0  0  0  0
   13.1181   37.6318   34.5689 C   0  0  0  0  0  0  0  0  0  0  0  0
   15.2063   35.6140   32.6739 N   0  0  0  0  0  0  0  0  0  0  0  0
   14.6733   36.2275   34.9182 C   0  0  0  0  0  0  0  0  0  0  0  0
   13.8226   37.0457   35.5783 N   0  0  0  0  0  0  0  0  0  0  0  0
   16.1636   34.7595   33.1546 C   0  0  0  0  0  0  0  0  0  0  0  0
   15.6515   35.3492   35.4130 C   0  0  0  0  0  0  0  0  0  0  0  0
   16.3791   34.6310   34.5041 N   0  0  0  0  0  0  0  0  0  0  0  0
   15.9003   35.1933   36.8089 N   0  0  0  0  0  0  0  0  0  0  0  0
    9.7834   45.0053   32.1585 H   0  0  0  0  0  0  0  0  0  0  0  0
   10.8101   46.9719   33.0961 H   0  0  0  0  0  0  0  0  0  0  0  0
   11.8826   45.7128   32.8978 H   0  0  0  0  0  0  0  0  0  0  0  0
    8.4067   46.6418   33.4222 H   0  0  0  0  0  0  0  0  0  0  0  0
    7.8130   44.9770   33.6750 H   0  0  0  0  0  0  0  0  0  0  0  0
    8.6529   47.2493   37.7837 H   0  0  0  0  0  0  0  0  0  0  0  0
   10.2220   46.4012   37.6804 H   0  0  0  0  0  0  0  0  0  0  0  0
   12.2977   47.5898   37.4367 H   0  0  0  0  0  0  0  0  0  0  0  0
    9.9059   51.9157   37.8222 H   0  0  0  0  0  0  0  0  0  0  0  0
   13.5514   49.6744   37.8002 H   0  0  0  0  0  0  0  0  0  0  0  0
   12.3562   51.8302   38.0136 H   0  0  0  0  0  0  0  0  0  0  0  0
   11.3994   41.5435   31.4725 H   0  0  0  0  0  0  0  0  0  0  0  0
    9.8309   40.7374   31.7550 H   0  0  0  0  0  0  0  0  0  0  0  0
   11.7002   39.5045   30.3473 H   0  0  0  0  0  0  0  0  0  0  0  0
   10.1104   38.2619   32.6636 H   0  0  0  0  0  0  0  0  0  0  0  0
   13.6696   37.4586   31.2222 H   0  0  0  0  0  0  0  0  0  0  0  0
    8.9000   38.6882   30.8814 H   0  0  0  0  0  0  0  0  0  0  0  0
   11.2690   36.3069   32.5091 H   0  0  0  0  0  0  0  0  0  0  0  0
   12.1426   35.5151   30.6153 H   0  0  0  0  0  0  0  0  0  0  0  0
   12.3359   38.3593   34.7445 H   0  0  0  0  0  0  0  0  0  0  0  0
   16.7569   34.1789   32.4618 H   0  0  0  0  0  0  0  0  0  0  0  0
   15.3530   35.7356   37.5138 H   0  0  0  0  0  0  0  0  0  0  0  0
   16.6362   34.5315   37.1414 H   0  0  0  0  0  0  0  0  0  0  0  0
  1  2  2  0
  1  3  1  0
  3  4  1  0
  4  5  1  0
  6  1  1  0
  7  6  1  0
  6  8  1  0
  8  9  1  0
  9 10  1  0
  9 11  2  0
 10 12  1  0
 12 13  1  0
 13 14  2  0
 15 13  1  0
 14 16  1  0
 14 17  1  0
 18 15  2  0
 16 19  1  0
 16 20  2  0
 17 21  2  0
 21 18  1  0
  4 22  2  0
  4 23  1  0
 24 23  1  0
 24 25  1  0
 25 26  1  0
 25 27  1  0
 26 28  1  0
 27 29  1  0
 27 30  1  0
 30 28  1  0
 28 31  1  0
 30 32  1  0
 33 31  1  0
 34 31  1  0
 35 33  2  0
 33 36  1  0
 37 34  2  0
 38 35  1  0
 36 39  2  0
 36 37  1  0
 40 38  2  0
 40 39  1  0
 39 41  1  0
  6 42  1  6
  7 43  1  0
  7 44  1  0
  8 45  1  0
  8 46  1  0
 12 47  1  0
 12 48  1  0
 15 49  1  0
 17 50  1  0
 18 51  1  0
 21 52  1  0
 24 53  1  0
 24 54  1  0
 25 55  1  0
 27 56  1  0
 28 57  1  0
 29 58  1  0
 30 59  1  0
 32 60  1  0
 34 61  1  0
 38 62  1  0
 41 63  1  0
 41 64  1  0
M  CHG  3   5  -1  16   1  19  -1
M  END
>  <EmbedRMS>  (60) 
0.08933210740974504

$$$$

     RDKit          3D

 64 67  0  0  0  0  0  0  0  0999 V2000
   10.2872   43.7711   33.8022 C   0  0  0  0  0  0  0  0  0  0  0  0
   11.4094   43.5878   34.3594 O   0  0  0  0  0  0  0  0  0  0  0  0
    9.3680   42.7305   33.6982 O   0  0  0  0  0  0  0  0  0  0  0  0
    9.8853   41.2343   34.2846 P   0  0  0  0  0  5  0  0  0  0  0  0
   10.3645   41.4712   35.8753 O   0  0  0  0  0  1  0  0  0  0  0  0
    9.9521   45.1154   33.2554 C   0  0  2  0  0  0  0  0  0  0  0  0
   11.0706   46.0335   33.4780 N   0  0  0  0  0  0  0  0  0  0  0  0
    8.6621   45.6645   33.8980 C   0  0  0  0  0  0  0  0  0  0  0  0
    8.7945   45.8361   35.3821 C   0  0  0  0  0  0  0  0  0  0  0  0
    8.5550   44.7431   36.2231 O   0  0  0  0  0  0  0  0  0  0  0  0
    9.1558   46.9478   35.8561 O   0  0  0  0  0  0  0  0  0  0  0  0
    8.6840   44.8061   37.6429 C   0  0  0  0  0  0  0  0  0  0  0  0
    7.5777   45.6302   38.2669 C   0  0  0  0  0  0  0  0  0  0  0  0
    7.7903   46.3960   39.4430 C   0  0  0  0  0  0  0  0  0  0  0  0
    6.2970   45.6192   37.6806 C   0  0  0  0  0  0  0  0  0  0  0  0
    9.0405   46.3576   40.1519 N   0  0  0  0  0  4  0  0  0  0  0  0
    6.7457   47.1957   39.9411 C   0  0  0  0  0  0  0  0  0  0  0  0
    5.2680   46.4048   38.2014 C   0  0  0  0  0  0  0  0  0  0  0  0
    9.6711   45.1559   40.3790 O   0  0  0  0  0  1  0  0  0  0  0  0
    9.4588   47.3769   40.7389 O   0  0  0  0  0  0  0  0  0  0  0  0
    5.4954   47.2010   39.3219 C   0  0  0  0  0  0  0  0  0  0  0  0
    8.8079   40.1914   34.2085 O   0  0  0  0  0  0  0  0  0  0  0  0
   11.2381   40.7899   33.3702 O   0  0  0  0  0  0  0  0  0  0  0  0
   10.9190   40.6904   31.9965 C   0  0  0  0  0  0  0  0  0  0  0  0
   11.5176   39.3824   31.4413 C   0  0  0  0  0  0  0  0  0  0  0  0
   12.7496   39.0892   32.0755 O   0  0  0  0  0  0  0  0  0  0  0  0
   10.6036   38.1899   31.6660 C   0  0  0  0  0  0  0  0  0  0  0  0
   12.9401   37.6833   32.0276 C   0  0  0  0  0  0  0  0  0  0  0  0
    9.6377   38.0786   30.6474 O   0  0  0  0  0  0  0  0  0  0  0  0
   11.5803   37.0204   31.6937 C   0  0  0  0  0  0  0  0  0  0  0  0
   13.4902   37.2177   33.3237 N   0  0  0  0  0  0  0  0  0  0  0  0
   11.6117   36.3193   30.4680 O   0  0  0  0  0  0  0  0  0  0  0  0
   14.4759   36.3271   33.5731 C   0  0  0  0  0  0  0  0  0  0  0  0
   13.1176   37.6317   34.5688 C   0  0  0  0  0  0  0  0  0  0  0  0
   15.2064   35.6141   32.6742 N   0  0  0  0  0  0  0  0  0  0  0  0
   14.6729   36.2274   34.9184 C   0  0  0  0  0  0  0  0  0  0  0  0
   13.8221   37.0457   35.5783 N   0  0  0  0  0  0  0  0  0  0  0  0
   16.1637   34.7597   33.1549 C   0  0  0  0  0  0  0  0  0  0  0  0
   15.6514   35.3493   35.4133 C   0  0  0  0  0  0  0  0  0  0  0  0
   16.3791   34.6312   34.5044 N   0  0  0  0  0  0  0  0  0  0  0  0
   15.9001   35.1935   36.8091 N   0  0  0  0  0  0  0  0  0  0  0  0
    9.7785   45.0093   32.1608 H   0  0  0  0  0  0  0  0  0  0  0  0
   11.8807   45.7140   32.8973 H   0  0  0  0  0  0  0  0  0  0  0  0
   10.8083   46.9725   33.0985 H   0  0  0  0  0  0  0  0  0  0  0  0
    8.4039   46.6417   33.4345 H   0  0  0  0  0  0  0  0  0  0  0  0
    7.8156   44.9752   33.6879 H   0  0  0  0  0  0  0  0  0  0  0  0
    9.6853   45.2223   37.8829 H   0  0  0  0  0  0  0  0  0  0  0  0
    8.6301   43.7751   38.0502 H   0  0  0  0  0  0  0  0  0  0  0  0
    6.0950   45.0118   36.8071 H   0  0  0  0  0  0  0  0  0  0  0  0
    6.8925   47.7959   40.8302 H   0  0  0  0  0  0  0  0  0  0  0  0
    4.2925   46.3984   37.7323 H   0  0  0  0  0  0  0  0  0  0  0  0
    4.6962   47.8117   39.7220 H   0  0  0  0  0  0  0  0  0  0  0  0
   11.4002   41.5455   31.4754 H   0  0  0  0  0  0  0  0  0  0  0  0
    9.8312   40.7397   31.7562 H   0  0  0  0  0  0  0  0  0  0  0  0
   11.6989   39.5093   30.3490 H   0  0  0  0  0  0  0  0  0  0  0  0
   10.1130   38.2588   32.6664 H   0  0  0  0  0  0  0  0  0  0  0  0
   13.6800   37.4626   31.2265 H   0  0  0  0  0  0  0  0  0  0  0  0
    8.8954   38.6910   30.8891 H   0  0  0  0  0  0  0  0  0  0  0  0
   11.2830   36.3060   32.4929 H   0  0  0  0  0  0  0  0  0  0  0  0
   11.8859   36.9589   29.7593 H   0  0  0  0  0  0  0  0  0  0  0  0
   12.3360   38.3600   34.7441 H   0  0  0  0  0  0  0  0  0  0  0  0
   16.7572   34.1793   32.4621 H   0  0  0  0  0  0  0  0  0  0  0  0
   15.3528   35.7356   37.5140 H   0  0  0  0  0  0  0  0  0  0  0  0
   16.6362   34.5318   37.1416 H   0  0  0  0  0  0  0  0  0  0  0  0
  1  2  2  0
  1  3  1  0
  3  4  1  0
  4  5  1  0
  6  1  1  0
  7  6  1  0
  6  8  1  0
  8  9  1  0
  9 10  1  0
  9 11  2  0
 10 12  1  0
 12 13  1  0
 13 14  2  0
 15 13  1  0
 14 16  1  0
 14 17  1  0
 18 15  2  0
 16 19  1  0
 16 20  2  0
 17 21  2  0
 21 18  1  0
  4 22  2  0
  4 23  1  0
 24 23  1  0
 24 25  1  0
 25 26  1  0
 25 27  1  0
 26 28  1  0
 27 29  1  0
 27 30  1  0
 30 28  1  0
 28 31  1  0
 30 32  1  0
 33 31  1  0
 34 31  1  0
 35 33  2  0
 33 36  1  0
 37 34  2  0
 38 35  1  0
 36 39  2  0
 36 37  1  0
 40 38  2  0
 40 39  1  0
 39 41  1  0
  6 42  1  6
  7 43  1  0
  7 44  1  0
  8 45  1  0
  8 46  1  0
 12 47  1  0
 12 48  1  0
 15 49  1  0
 17 50  1  0
 18 51  1  0
 21 52  1  0
 24 53  1  0
 24 54  1  0
 25 55  1  0
 27 56  1  0
 28 57  1  0
 29 58  1  0
 30 59  1  0
 32 60  1  0
 34 61  1  0
 38 62  1  0
 41 63  1  0
 41 64  1  0
M  CHG  3   5  -1  16   1  19  -1
M  END
>  <EmbedRMS>  (61) 
0.08833672703604586

$$$$

     RDKit          3D

 64 67  0  0  0  0  0  0  0  0999 V2000
   10.2828   43.7755   33.8075 C   0  0  0  0  0  0  0  0  0  0  0  0
   11.4085   43.5914   34.3576 O   0  0  0  0  0  0  0  0  0  0  0  0
    9.3666   42.7319   33.7012 O   0  0  0  0  0  0  0  0  0  0  0  0
    9.8863   41.2345   34.2833 P   0  0  0  0  0  5  0  0  0  0  0  0
   10.3677   41.4693   35.8736 O   0  0  0  0  0  1  0  0  0  0  0  0
    9.9533   45.1118   33.2436 C   0  0  2  0  0  0  0  0  0  0  0  0
   11.0725   46.0268   33.4848 N   0  0  0  0  0  0  0  0  0  0  0  0
    8.6401   45.6441   33.8551 C   0  0  0  0  0  0  0  0  0  0  0  0
    8.2245   46.9358   33.2231 C   0  0  0  0  0  0  0  0  0  0  0  0
    8.5438   48.1434   33.8535 O   0  0  0  0  0  0  0  0  0  0  0  0
    7.6223   46.9243   32.1154 O   0  0  0  0  0  0  0  0  0  0  0  0
    8.2031   49.4231   33.3223 C   0  0  0  0  0  0  0  0  0  0  0  0
    6.7093   49.6508   33.3834 C   0  0  0  0  0  0  0  0  0  0  0  0
    5.9487   50.0844   32.2648 C   0  0  0  0  0  0  0  0  0  0  0  0
    6.0738   49.5160   34.6313 C   0  0  0  0  0  0  0  0  0  0  0  0
    6.5299   50.2373   30.9616 N   0  0  0  0  0  4  0  0  0  0  0  0
    4.5856   50.3809   32.4334 C   0  0  0  0  0  0  0  0  0  0  0  0
    4.7143   49.7966   34.7741 C   0  0  0  0  0  0  0  0  0  0  0  0
    6.1767   51.3151   30.1830 O   0  0  0  0  0  1  0  0  0  0  0  0
    7.1301   49.2820   30.4284 O   0  0  0  0  0  0  0  0  0  0  0  0
    3.9723   50.2320   33.6779 C   0  0  0  0  0  0  0  0  0  0  0  0
    8.8086   40.1917   34.2083 O   0  0  0  0  0  0  0  0  0  0  0  0
   11.2373   40.7914   33.3654 O   0  0  0  0  0  0  0  0  0  0  0  0
   10.9133   40.6844   31.9929 C   0  0  0  0  0  0  0  0  0  0  0  0
   11.5174   39.3773   31.4395 C   0  0  0  0  0  0  0  0  0  0  0  0
   12.7476   39.0869   32.0757 O   0  0  0  0  0  0  0  0  0  0  0  0
   10.6069   38.1851   31.6657 C   0  0  0  0  0  0  0  0  0  0  0  0
   12.9372   37.6811   32.0290 C   0  0  0  0  0  0  0  0  0  0  0  0
    9.6403   38.0882   30.6476 O   0  0  0  0  0  0  0  0  0  0  0  0
   11.5789   37.0134   31.7045 C   0  0  0  0  0  0  0  0  0  0  0  0
   13.4915   37.2182   33.3239 N   0  0  0  0  0  0  0  0  0  0  0  0
   11.6125   36.3389   30.4674 O   0  0  0  0  0  0  0  0  0  0  0  0
   14.4766   36.3272   33.5730 C   0  0  0  0  0  0  0  0  0  0  0  0
   13.1184   37.6317   34.5690 C   0  0  0  0  0  0  0  0  0  0  0  0
   15.2066   35.6139   32.6740 N   0  0  0  0  0  0  0  0  0  0  0  0
   14.6735   36.2273   34.9184 C   0  0  0  0  0  0  0  0  0  0  0  0
   13.8228   37.0455   35.5785 N   0  0  0  0  0  0  0  0  0  0  0  0
   16.1637   34.7593   33.1548 C   0  0  0  0  0  0  0  0  0  0  0  0
   15.6517   35.3491   35.4132 C   0  0  0  0  0  0  0  0  0  0  0  0
   16.3792   34.6308   34.5043 N   0  0  0  0  0  0  0  0  0  0  0  0
   15.9004   35.1932   36.8090 N   0  0  0  0  0  0  0  0  0  0  0  0
    9.8202   44.9856   32.1459 H   0  0  0  0  0  0  0  0  0  0  0  0
   10.9417   46.8855   32.9023 H   0  0  0  0  0  0  0  0  0  0  0  0
   11.0778   46.3243   34.4884 H   0  0  0  0  0  0  0  0  0  0  0  0
    8.7586   45.7908   34.9510 H   0  0  0  0  0  0  0  0  0  0  0  0
    7.8251   44.9028   33.7034 H   0  0  0  0  0  0  0  0  0  0  0  0
    8.6959   50.1998   33.9440 H   0  0  0  0  0  0  0  0  0  0  0  0
    8.6262   49.5256   32.3047 H   0  0  0  0  0  0  0  0  0  0  0  0
    6.6382   49.2029   35.5013 H   0  0  0  0  0  0  0  0  0  0  0  0
    3.9922   50.7138   31.5910 H   0  0  0  0  0  0  0  0  0  0  0  0
    4.2379   49.6869   35.7398 H   0  0  0  0  0  0  0  0  0  0  0  0
    2.9193   50.4553   33.7922 H   0  0  0  0  0  0  0  0  0  0  0  0
   11.3843   41.5414   31.4656 H   0  0  0  0  0  0  0  0  0  0  0  0
    9.8230   40.7186   31.7573 H   0  0  0  0  0  0  0  0  0  0  0  0
   11.7007   39.5016   30.3471 H   0  0  0  0  0  0  0  0  0  0  0  0
   10.1097   38.2751   32.6606 H   0  0  0  0  0  0  0  0  0  0  0  0
   13.6713   37.4593   31.2227 H   0  0  0  0  0  0  0  0  0  0  0  0
    9.0033   37.3835   30.9351 H   0  0  0  0  0  0  0  0  0  0  0  0
   11.2706   36.3048   32.5088 H   0  0  0  0  0  0  0  0  0  0  0  0
   12.1444   35.5136   30.6141 H   0  0  0  0  0  0  0  0  0  0  0  0
   12.3362   38.3592   34.7445 H   0  0  0  0  0  0  0  0  0  0  0  0
   16.7571   34.1787   32.4620 H   0  0  0  0  0  0  0  0  0  0  0  0
   16.6363   34.5314   37.1415 H   0  0  0  0  0  0  0  0  0  0  0  0
   15.3532   35.7355   37.5139 H   0  0  0  0  0  0  0  0  0  0  0  0
  1  2  2  0
  1  3  1  0
  3  4  1  0
  4  5  1  0
  6  1  1  0
  7  6  1  0
  6  8  1  0
  8  9  1  0
  9 10  1  0
  9 11  2  0
 10 12  1  0
 12 13  1  0
 13 14  2  0
 15 13  1  0
 14 16  1  0
 14 17  1  0
 18 15  2  0
 16 19  1  0
 16 20  2  0
 17 21  2  0
 21 18  1  0
  4 22  2  0
  4 23  1  0
 24 23  1  0
 24 25  1  0
 25 26  1  0
 25 27  1  0
 26 28  1  0
 27 29  1  0
 27 30  1  0
 30 28  1  0
 28 31  1  0
 30 32  1  0
 33 31  1  0
 34 31  1  0
 35 33  2  0
 33 36  1  0
 37 34  2  0
 38 35  1  0
 36 39  2  0
 36 37  1  0
 40 38  2  0
 40 39  1  0
 39 41  1  0
  6 42  1  6
  7 43  1  0
  7 44  1  0
  8 45  1  0
  8 46  1  0
 12 47  1  0
 12 48  1  0
 15 49  1  0
 17 50  1  0
 18 51  1  0
 21 52  1  0
 24 53  1  0
 24 54  1  0
 25 55  1  0
 27 56  1  0
 28 57  1  0
 29 58  1  0
 30 59  1  0
 32 60  1  0
 34 61  1  0
 38 62  1  0
 41 63  1  0
 41 64  1  0
M  CHG  3   5  -1  16   1  19  -1
M  END
>  <EmbedRMS>  (62) 
0.08854593423386545

$$$$

     RDKit          3D

 64 67  0  0  0  0  0  0  0  0999 V2000
   10.2841   43.7733   33.8087 C   0  0  0  0  0  0  0  0  0  0  0  0
   11.4132   43.5860   34.3500 O   0  0  0  0  0  0  0  0  0  0  0  0
    9.3654   42.7322   33.7052 O   0  0  0  0  0  0  0  0  0  0  0  0
    9.8854   41.2341   34.2851 P   0  0  0  0  0  5  0  0  0  0  0  0
   10.3660   41.4667   35.8756 O   0  0  0  0  0  1  0  0  0  0  0  0
    9.9649   45.1063   33.2308 C   0  0  2  0  0  0  0  0  0  0  0  0
   11.0621   46.0401   33.4949 N   0  0  0  0  0  0  0  0  0  0  0  0
    8.6054   45.6502   33.7244 C   0  0  0  0  0  0  0  0  0  0  0  0
    8.5621   45.8904   35.2046 C   0  0  0  0  0  0  0  0  0  0  0  0
    8.3645   44.8130   36.0765 O   0  0  0  0  0  0  0  0  0  0  0  0
    8.7136   47.0601   35.6521 O   0  0  0  0  0  0  0  0  0  0  0  0
    8.2532   44.9670   37.4919 C   0  0  0  0  0  0  0  0  0  0  0  0
    9.5739   45.3784   38.1077 C   0  0  0  0  0  0  0  0  0  0  0  0
    9.6554   46.3300   39.1589 C   0  0  0  0  0  0  0  0  0  0  0  0
   10.7578   44.7908   37.6262 C   0  0  0  0  0  0  0  0  0  0  0  0
    8.4811   46.8804   39.7772 N   0  0  0  0  0  4  0  0  0  0  0  0
   10.9191   46.7325   39.6246 C   0  0  0  0  0  0  0  0  0  0  0  0
   12.0025   45.1887   38.1147 C   0  0  0  0  0  0  0  0  0  0  0  0
    8.4920   48.1783   40.2337 O   0  0  0  0  0  1  0  0  0  0  0  0
    7.5376   46.1337   40.1095 O   0  0  0  0  0  0  0  0  0  0  0  0
   12.0838   46.1676   39.1030 C   0  0  0  0  0  0  0  0  0  0  0  0
    8.8081   40.1911   34.2080 O   0  0  0  0  0  0  0  0  0  0  0  0
   11.2381   40.7914   33.3689 O   0  0  0  0  0  0  0  0  0  0  0  0
   10.9187   40.6898   31.9953 C   0  0  0  0  0  0  0  0  0  0  0  0
   11.5168   39.3804   31.4401 C   0  0  0  0  0  0  0  0  0  0  0  0
   12.7476   39.0864   32.0737 O   0  0  0  0  0  0  0  0  0  0  0  0
   10.6030   38.1892   31.6667 C   0  0  0  0  0  0  0  0  0  0  0  0
   12.9334   37.6799   32.0280 C   0  0  0  0  0  0  0  0  0  0  0  0
    9.6396   38.0778   30.6456 O   0  0  0  0  0  0  0  0  0  0  0  0
   11.5739   37.0155   31.7058 C   0  0  0  0  0  0  0  0  0  0  0  0
   13.4903   37.2179   33.3231 N   0  0  0  0  0  0  0  0  0  0  0  0
   11.6211   36.3378   30.4695 O   0  0  0  0  0  0  0  0  0  0  0  0
   14.4761   36.3274   33.5725 C   0  0  0  0  0  0  0  0  0  0  0  0
   13.1179   37.6317   34.5685 C   0  0  0  0  0  0  0  0  0  0  0  0
   15.2063   35.6139   32.6737 N   0  0  0  0  0  0  0  0  0  0  0  0
   14.6733   36.2277   34.9180 C   0  0  0  0  0  0  0  0  0  0  0  0
   13.8225   37.0459   35.5780 N   0  0  0  0  0  0  0  0  0  0  0  0
   16.1636   34.7595   33.1546 C   0  0  0  0  0  0  0  0  0  0  0  0
   15.6515   35.3494   35.4129 C   0  0  0  0  0  0  0  0  0  0  0  0
   16.3791   34.6311   34.5041 N   0  0  0  0  0  0  0  0  0  0  0  0
   15.9001   35.1935   36.8088 N   0  0  0  0  0  0  0  0  0  0  0  0
    9.8903   44.9687   32.1298 H   0  0  0  0  0  0  0  0  0  0  0  0
   11.1301   46.2339   34.5208 H   0  0  0  0  0  0  0  0  0  0  0  0
   10.8512   46.9477   33.0195 H   0  0  0  0  0  0  0  0  0  0  0  0
    7.7990   44.9339   33.4558 H   0  0  0  0  0  0  0  0  0  0  0  0
    8.3792   46.5994   33.1913 H   0  0  0  0  0  0  0  0  0  0  0  0
    7.4531   45.7087   37.6940 H   0  0  0  0  0  0  0  0  0  0  0  0
    7.9435   43.9969   37.9330 H   0  0  0  0  0  0  0  0  0  0  0  0
   10.7178   44.0308   36.8589 H   0  0  0  0  0  0  0  0  0  0  0  0
   11.0017   47.4666   40.4162 H   0  0  0  0  0  0  0  0  0  0  0  0
   12.9059   44.7391   37.7230 H   0  0  0  0  0  0  0  0  0  0  0  0
   13.0505   46.4774   39.4785 H   0  0  0  0  0  0  0  0  0  0  0  0
   11.3998   41.5441   31.4728 H   0  0  0  0  0  0  0  0  0  0  0  0
    9.8307   40.7396   31.7557 H   0  0  0  0  0  0  0  0  0  0  0  0
   11.6980   39.5047   30.3475 H   0  0  0  0  0  0  0  0  0  0  0  0
   10.1087   38.2631   32.6650 H   0  0  0  0  0  0  0  0  0  0  0  0
   13.6655   37.4545   31.2208 H   0  0  0  0  0  0  0  0  0  0  0  0
    8.8964   38.6899   30.8852 H   0  0  0  0  0  0  0  0  0  0  0  0
   11.2846   36.3061   32.5176 H   0  0  0  0  0  0  0  0  0  0  0  0
   10.8524   35.7096   30.4590 H   0  0  0  0  0  0  0  0  0  0  0  0
   12.3353   38.3589   34.7440 H   0  0  0  0  0  0  0  0  0  0  0  0
   16.7570   34.1788   32.4619 H   0  0  0  0  0  0  0  0  0  0  0  0
   15.3529   35.7359   37.5136 H   0  0  0  0  0  0  0  0  0  0  0  0
   16.6360   34.5317   37.1413 H   0  0  0  0  0  0  0  0  0  0  0  0
  1  2  2  0
  1  3  1  0
  3  4  1  0
  4  5  1  0
  6  1  1  0
  7  6  1  0
  6  8  1  0
  8  9  1  0
  9 10  1  0
  9 11  2  0
 10 12  1  0
 12 13  1  0
 13 14  2  0
 15 13  1  0
 14 16  1  0
 14 17  1  0
 18 15  2  0
 16 19  1  0
 16 20  2  0
 17 21  2  0
 21 18  1  0
  4 22  2  0
  4 23  1  0
 24 23  1  0
 24 25  1  0
 25 26  1  0
 25 27  1  0
 26 28  1  0
 27 29  1  0
 27 30  1  0
 30 28  1  0
 28 31  1  0
 30 32  1  0
 33 31  1  0
 34 31  1  0
 35 33  2  0
 33 36  1  0
 37 34  2  0
 38 35  1  0
 36 39  2  0
 36 37  1  0
 40 38  2  0
 40 39  1  0
 39 41  1  0
  6 42  1  6
  7 43  1  0
  7 44  1  0
  8 45  1  0
  8 46  1  0
 12 47  1  0
 12 48  1  0
 15 49  1  0
 17 50  1  0
 18 51  1  0
 21 52  1  0
 24 53  1  0
 24 54  1  0
 25 55  1  0
 27 56  1  0
 28 57  1  0
 29 58  1  0
 30 59  1  0
 32 60  1  0
 34 61  1  0
 38 62  1  0
 41 63  1  0
 41 64  1  0
M  CHG  3   5  -1  16   1  19  -1
M  END
>  <EmbedRMS>  (63) 
0.08945306704403197

$$$$

     RDKit          3D

 64 67  0  0  0  0  0  0  0  0999 V2000
   10.2862   43.7709   33.8098 C   0  0  0  0  0  0  0  0  0  0  0  0
   11.4100   43.5817   34.3615 O   0  0  0  0  0  0  0  0  0  0  0  0
    9.3667   42.7309   33.7019 O   0  0  0  0  0  0  0  0  0  0  0  0
    9.8845   41.2330   34.2841 P   0  0  0  0  0  5  0  0  0  0  0  0
   10.3656   41.4677   35.8746 O   0  0  0  0  0  1  0  0  0  0  0  0
    9.9609   45.1121   33.2471 C   0  0  2  0  0  0  0  0  0  0  0  0
   11.0655   46.0481   33.4749 N   0  0  0  0  0  0  0  0  0  0  0  0
    8.6635   45.6561   33.8691 C   0  0  0  0  0  0  0  0  0  0  0  0
    8.2957   46.9747   33.2650 C   0  0  0  0  0  0  0  0  0  0  0  0
    8.7529   48.1531   33.8641 O   0  0  0  0  0  0  0  0  0  0  0  0
    7.6212   47.0095   32.2001 O   0  0  0  0  0  0  0  0  0  0  0  0
    8.6737   49.4342   33.2436 C   0  0  0  0  0  0  0  0  0  0  0  0
    9.6934   49.5443   32.1352 C   0  0  0  0  0  0  0  0  0  0  0  0
   11.0644   49.8182   32.3902 C   0  0  0  0  0  0  0  0  0  0  0  0
    9.2629   49.3716   30.8069 C   0  0  0  0  0  0  0  0  0  0  0  0
   11.5710   49.9957   33.7264 N   0  0  0  0  0  4  0  0  0  0  0  0
   11.9507   49.9386   31.3035 C   0  0  0  0  0  0  0  0  0  0  0  0
   10.1620   49.4807   29.7459 C   0  0  0  0  0  0  0  0  0  0  0  0
   11.1334   49.1985   34.7578 O   0  0  0  0  0  1  0  0  0  0  0  0
   12.5329   50.7647   33.9323 O   0  0  0  0  0  0  0  0  0  0  0  0
   11.5026   49.7670   29.9934 C   0  0  0  0  0  0  0  0  0  0  0  0
    8.8069   40.1904   34.2081 O   0  0  0  0  0  0  0  0  0  0  0  0
   11.2365   40.7897   33.3680 O   0  0  0  0  0  0  0  0  0  0  0  0
   10.9151   40.6881   31.9949 C   0  0  0  0  0  0  0  0  0  0  0  0
   11.5260   39.3871   31.4364 C   0  0  0  0  0  0  0  0  0  0  0  0
   12.7490   39.0893   32.0819 O   0  0  0  0  0  0  0  0  0  0  0  0
   10.6123   38.1893   31.6461 C   0  0  0  0  0  0  0  0  0  0  0  0
   12.9373   37.6827   32.0301 C   0  0  0  0  0  0  0  0  0  0  0  0
    9.6150   38.0838   30.6538 O   0  0  0  0  0  0  0  0  0  0  0  0
   11.5793   37.0136   31.7014 C   0  0  0  0  0  0  0  0  0  0  0  0
   13.4906   37.2170   33.3242 N   0  0  0  0  0  0  0  0  0  0  0  0
   11.6217   36.3252   30.4725 O   0  0  0  0  0  0  0  0  0  0  0  0
   14.4763   36.3266   33.5731 C   0  0  0  0  0  0  0  0  0  0  0  0
   13.1182   37.6308   34.5694 C   0  0  0  0  0  0  0  0  0  0  0  0
   15.2065   35.6137   32.6740 N   0  0  0  0  0  0  0  0  0  0  0  0
   14.6735   36.2270   34.9185 C   0  0  0  0  0  0  0  0  0  0  0  0
   13.8229   37.0451   35.5787 N   0  0  0  0  0  0  0  0  0  0  0  0
   16.1639   34.7593   33.1547 C   0  0  0  0  0  0  0  0  0  0  0  0
   15.6519   35.3489   35.4132 C   0  0  0  0  0  0  0  0  0  0  0  0
   16.3794   34.6308   34.5042 N   0  0  0  0  0  0  0  0  0  0  0  0
   15.9006   35.1931   36.8090 N   0  0  0  0  0  0  0  0  0  0  0  0
    9.8111   44.9954   32.1507 H   0  0  0  0  0  0  0  0  0  0  0  0
   11.2750   46.1192   34.4982 H   0  0  0  0  0  0  0  0  0  0  0  0
   11.9221   45.7040   32.9822 H   0  0  0  0  0  0  0  0  0  0  0  0
    8.7887   45.7782   34.9674 H   0  0  0  0  0  0  0  0  0  0  0  0
    7.8304   44.9390   33.6993 H   0  0  0  0  0  0  0  0  0  0  0  0
    7.6420   49.6096   32.8667 H   0  0  0  0  0  0  0  0  0  0  0  0
    8.8637   50.2192   34.0051 H   0  0  0  0  0  0  0  0  0  0  0  0
    8.2235   49.1597   30.5887 H   0  0  0  0  0  0  0  0  0  0  0  0
   12.9988   50.1507   31.4730 H   0  0  0  0  0  0  0  0  0  0  0  0
    9.8169   49.3475   28.7287 H   0  0  0  0  0  0  0  0  0  0  0  0
   12.1976   49.8542   29.1682 H   0  0  0  0  0  0  0  0  0  0  0  0
   11.3825   41.5504   31.4729 H   0  0  0  0  0  0  0  0  0  0  0  0
    9.8250   40.7180   31.7578 H   0  0  0  0  0  0  0  0  0  0  0  0
   11.7290   39.5287   30.3503 H   0  0  0  0  0  0  0  0  0  0  0  0
   10.1139   38.2718   32.6379 H   0  0  0  0  0  0  0  0  0  0  0  0
   13.6725   37.4637   31.2240 H   0  0  0  0  0  0  0  0  0  0  0  0
   10.0535   38.1084   29.7638 H   0  0  0  0  0  0  0  0  0  0  0  0
   11.2646   36.3134   32.5107 H   0  0  0  0  0  0  0  0  0  0  0  0
   12.1550   35.5032   30.6315 H   0  0  0  0  0  0  0  0  0  0  0  0
   12.3362   38.3586   34.7450 H   0  0  0  0  0  0  0  0  0  0  0  0
   16.7573   34.1788   32.4619 H   0  0  0  0  0  0  0  0  0  0  0  0
   16.6366   34.5314   37.1415 H   0  0  0  0  0  0  0  0  0  0  0  0
   15.3533   35.7353   37.5139 H   0  0  0  0  0  0  0  0  0  0  0  0
  1  2  2  0
  1  3  1  0
  3  4  1  0
  4  5  1  0
  6  1  1  0
  7  6  1  0
  6  8  1  0
  8  9  1  0
  9 10  1  0
  9 11  2  0
 10 12  1  0
 12 13  1  0
 13 14  2  0
 15 13  1  0
 14 16  1  0
 14 17  1  0
 18 15  2  0
 16 19  1  0
 16 20  2  0
 17 21  2  0
 21 18  1  0
  4 22  2  0
  4 23  1  0
 24 23  1  0
 24 25  1  0
 25 26  1  0
 25 27  1  0
 26 28  1  0
 27 29  1  0
 27 30  1  0
 30 28  1  0
 28 31  1  0
 30 32  1  0
 33 31  1  0
 34 31  1  0
 35 33  2  0
 33 36  1  0
 37 34  2  0
 38 35  1  0
 36 39  2  0
 36 37  1  0
 40 38  2  0
 40 39  1  0
 39 41  1  0
  6 42  1  6
  7 43  1  0
  7 44  1  0
  8 45  1  0
  8 46  1  0
 12 47  1  0
 12 48  1  0
 15 49  1  0
 17 50  1  0
 18 51  1  0
 21 52  1  0
 24 53  1  0
 24 54  1  0
 25 55  1  0
 27 56  1  0
 28 57  1  0
 29 58  1  0
 30 59  1  0
 32 60  1  0
 34 61  1  0
 38 62  1  0
 41 63  1  0
 41 64  1  0
M  CHG  3   5  -1  16   1  19  -1
M  END
>  <EmbedRMS>  (64) 
0.08842366737929033

$$$$

     RDKit          3D

 64 67  0  0  0  0  0  0  0  0999 V2000
   10.2859   43.7721   33.8047 C   0  0  0  0  0  0  0  0  0  0  0  0
   11.4085   43.5885   34.3610 O   0  0  0  0  0  0  0  0  0  0  0  0
    9.3673   42.7311   33.6995 O   0  0  0  0  0  0  0  0  0  0  0  0
    9.8850   41.2344   34.2845 P   0  0  0  0  0  5  0  0  0  0  0  0
   10.3654   41.4703   35.8749 O   0  0  0  0  0  1  0  0  0  0  0  0
    9.9529   45.1149   33.2535 C   0  0  2  0  0  0  0  0  0  0  0  0
   11.0714   46.0332   33.4764 N   0  0  0  0  0  0  0  0  0  0  0  0
    8.6606   45.6660   33.8894 C   0  0  0  0  0  0  0  0  0  0  0  0
    8.7943   45.8674   35.3696 C   0  0  0  0  0  0  0  0  0  0  0  0
    9.3665   47.0487   35.8538 O   0  0  0  0  0  0  0  0  0  0  0  0
    8.4231   44.9586   36.1619 O   0  0  0  0  0  0  0  0  0  0  0  0
    9.5216   47.3295   37.2435 C   0  0  0  0  0  0  0  0  0  0  0  0
    8.1787   47.5612   37.8982 C   0  0  0  0  0  0  0  0  0  0  0  0
    7.2498   48.5198   37.4067 C   0  0  0  0  0  0  0  0  0  0  0  0
    7.8256   46.7686   39.0059 C   0  0  0  0  0  0  0  0  0  0  0  0
    7.5502   49.3736   36.2872 N   0  0  0  0  0  4  0  0  0  0  0  0
    5.9890   48.6266   38.0205 C   0  0  0  0  0  0  0  0  0  0  0  0
    6.5747   46.9032   39.6090 C   0  0  0  0  0  0  0  0  0  0  0  0
    6.5352   49.8186   35.4715 O   0  0  0  0  0  1  0  0  0  0  0  0
    8.6930   49.8512   36.1356 O   0  0  0  0  0  0  0  0  0  0  0  0
    5.6567   47.8268   39.1145 C   0  0  0  0  0  0  0  0  0  0  0  0
    8.8076   40.1914   34.2088 O   0  0  0  0  0  0  0  0  0  0  0  0
   11.2368   40.7903   33.3690 O   0  0  0  0  0  0  0  0  0  0  0  0
   10.9155   40.6897   31.9960 C   0  0  0  0  0  0  0  0  0  0  0  0
   11.5270   39.3898   31.4374 C   0  0  0  0  0  0  0  0  0  0  0  0
   12.7508   39.0916   32.0838 O   0  0  0  0  0  0  0  0  0  0  0  0
   10.6122   38.1916   31.6452 C   0  0  0  0  0  0  0  0  0  0  0  0
   12.9429   37.6852   32.0295 C   0  0  0  0  0  0  0  0  0  0  0  0
    9.6070   38.0858   30.6603 O   0  0  0  0  0  0  0  0  0  0  0  0
   11.5845   37.0186   31.6879 C   0  0  0  0  0  0  0  0  0  0  0  0
   13.4899   37.2163   33.3250 N   0  0  0  0  0  0  0  0  0  0  0  0
   11.6202   36.3062   30.4693 O   0  0  0  0  0  0  0  0  0  0  0  0
   14.4759   36.3263   33.5738 C   0  0  0  0  0  0  0  0  0  0  0  0
   13.1176   37.6307   34.5699 C   0  0  0  0  0  0  0  0  0  0  0  0
   15.2065   35.6139   32.6746 N   0  0  0  0  0  0  0  0  0  0  0  0
   14.6731   36.2267   34.9191 C   0  0  0  0  0  0  0  0  0  0  0  0
   13.8224   37.0450   35.5792 N   0  0  0  0  0  0  0  0  0  0  0  0
   16.1640   34.7596   33.1551 C   0  0  0  0  0  0  0  0  0  0  0  0
   15.6517   35.3489   35.4136 C   0  0  0  0  0  0  0  0  0  0  0  0
   16.3795   34.6310   34.5046 N   0  0  0  0  0  0  0  0  0  0  0  0
   15.9006   35.1931   36.8094 N   0  0  0  0  0  0  0  0  0  0  0  0
    9.7829   45.0053   32.1588 H   0  0  0  0  0  0  0  0  0  0  0  0
   11.8824   45.7126   32.8976 H   0  0  0  0  0  0  0  0  0  0  0  0
   10.8100   46.9717   33.0951 H   0  0  0  0  0  0  0  0  0  0  0  0
    8.4037   46.6390   33.4178 H   0  0  0  0  0  0  0  0  0  0  0  0
    7.8143   44.9748   33.6821 H   0  0  0  0  0  0  0  0  0  0  0  0
   10.0750   46.4929   37.7242 H   0  0  0  0  0  0  0  0  0  0  0  0
   10.1520   48.2337   37.3672 H   0  0  0  0  0  0  0  0  0  0  0  0
    8.5159   46.0326   39.3994 H   0  0  0  0  0  0  0  0  0  0  0  0
    5.2638   49.3453   37.6605 H   0  0  0  0  0  0  0  0  0  0  0  0
    6.3144   46.2844   40.4581 H   0  0  0  0  0  0  0  0  0  0  0  0
    4.6853   47.9260   39.5817 H   0  0  0  0  0  0  0  0  0  0  0  0
    9.8254   40.7190   31.7587 H   0  0  0  0  0  0  0  0  0  0  0  0
   11.3825   41.5526   31.4747 H   0  0  0  0  0  0  0  0  0  0  0  0
   11.7318   39.5338   30.3520 H   0  0  0  0  0  0  0  0  0  0  0  0
   10.1215   38.2682   32.6412 H   0  0  0  0  0  0  0  0  0  0  0  0
   13.6882   37.4708   31.2319 H   0  0  0  0  0  0  0  0  0  0  0  0
   10.0257   38.1751   29.7656 H   0  0  0  0  0  0  0  0  0  0  0  0
   11.2796   36.3123   32.4915 H   0  0  0  0  0  0  0  0  0  0  0  0
   11.9872   36.9099   29.7714 H   0  0  0  0  0  0  0  0  0  0  0  0
   12.3365   38.3595   34.7453 H   0  0  0  0  0  0  0  0  0  0  0  0
   16.7577   34.1794   32.4622 H   0  0  0  0  0  0  0  0  0  0  0  0
   16.6368   34.5316   37.1418 H   0  0  0  0  0  0  0  0  0  0  0  0
   15.3532   35.7351   37.5143 H   0  0  0  0  0  0  0  0  0  0  0  0
  1  2  2  0
  1  3  1  0
  3  4  1  0
  4  5  1  0
  6  1  1  0
  7  6  1  0
  6  8  1  0
  8  9  1  0
  9 10  1  0
  9 11  2  0
 10 12  1  0
 12 13  1  0
 13 14  2  0
 15 13  1  0
 14 16  1  0
 14 17  1  0
 18 15  2  0
 16 19  1  0
 16 20  2  0
 17 21  2  0
 21 18  1  0
  4 22  2  0
  4 23  1  0
 24 23  1  0
 24 25  1  0
 25 26  1  0
 25 27  1  0
 26 28  1  0
 27 29  1  0
 27 30  1  0
 30 28  1  0
 28 31  1  0
 30 32  1  0
 33 31  1  0
 34 31  1  0
 35 33  2  0
 33 36  1  0
 37 34  2  0
 38 35  1  0
 36 39  2  0
 36 37  1  0
 40 38  2  0
 40 39  1  0
 39 41  1  0
  6 42  1  6
  7 43  1  0
  7 44  1  0
  8 45  1  0
  8 46  1  0
 12 47  1  0
 12 48  1  0
 15 49  1  0
 17 50  1  0
 18 51  1  0
 21 52  1  0
 24 53  1  0
 24 54  1  0
 25 55  1  0
 27 56  1  0
 28 57  1  0
 29 58  1  0
 30 59  1  0
 32 60  1  0
 34 61  1  0
 38 62  1  0
 41 63  1  0
 41 64  1  0
M  CHG  3   5  -1  16   1  19  -1
M  END
>  <EmbedRMS>  (65) 
0.08701100740565842

$$$$

     RDKit          3D

 64 67  0  0  0  0  0  0  0  0999 V2000
   10.2828   43.7754   33.8081 C   0  0  0  0  0  0  0  0  0  0  0  0
   11.4085   43.5914   34.3581 O   0  0  0  0  0  0  0  0  0  0  0  0
    9.3667   42.7318   33.7015 O   0  0  0  0  0  0  0  0  0  0  0  0
    9.8864   41.2345   34.2838 P   0  0  0  0  0  5  0  0  0  0  0  0
   10.3667   41.4693   35.8744 O   0  0  0  0  0  1  0  0  0  0  0  0
    9.9542   45.1108   33.2425 C   0  0  2  0  0  0  0  0  0  0  0  0
   11.0722   46.0270   33.4847 N   0  0  0  0  0  0  0  0  0  0  0  0
    8.6386   45.6435   33.8485 C   0  0  0  0  0  0  0  0  0  0  0  0
    8.2381   46.9416   33.2205 C   0  0  0  0  0  0  0  0  0  0  0  0
    7.7955   46.9537   31.8934 O   0  0  0  0  0  0  0  0  0  0  0  0
    8.3365   48.0138   33.8776 O   0  0  0  0  0  0  0  0  0  0  0  0
    7.5403   48.1544   31.1677 C   0  0  0  0  0  0  0  0  0  0  0  0
    8.8275   48.9011   30.8998 C   0  0  0  0  0  0  0  0  0  0  0  0
    9.9506   48.2823   30.2854 C   0  0  0  0  0  0  0  0  0  0  0  0
    8.9261   50.2405   31.3198 C   0  0  0  0  0  0  0  0  0  0  0  0
    9.9096   46.9212   29.8168 N   0  0  0  0  0  4  0  0  0  0  0  0
   11.1434   49.0161   30.1457 C   0  0  0  0  0  0  0  0  0  0  0  0
   10.1140   50.9535   31.1564 C   0  0  0  0  0  0  0  0  0  0  0  0
    8.7829   46.4198   29.2082 O   0  0  0  0  0  1  0  0  0  0  0  0
   10.9495   46.2301   29.8115 O   0  0  0  0  0  0  0  0  0  0  0  0
   11.2219   50.3410   30.5755 C   0  0  0  0  0  0  0  0  0  0  0  0
    8.8090   40.1913   34.2078 O   0  0  0  0  0  0  0  0  0  0  0  0
   11.2387   40.7912   33.3679 O   0  0  0  0  0  0  0  0  0  0  0  0
   10.9186   40.6890   31.9945 C   0  0  0  0  0  0  0  0  0  0  0  0
   11.5180   39.3801   31.4397 C   0  0  0  0  0  0  0  0  0  0  0  0
   12.7483   39.0876   32.0750 O   0  0  0  0  0  0  0  0  0  0  0  0
   10.6053   38.1875   31.6656 C   0  0  0  0  0  0  0  0  0  0  0  0
   12.9360   37.6817   32.0288 C   0  0  0  0  0  0  0  0  0  0  0  0
    9.6423   38.0738   30.6445 O   0  0  0  0  0  0  0  0  0  0  0  0
   11.5765   37.0159   31.7046 C   0  0  0  0  0  0  0  0  0  0  0  0
   13.4908   37.2183   33.3237 N   0  0  0  0  0  0  0  0  0  0  0  0
   11.6102   36.3400   30.4680 O   0  0  0  0  0  0  0  0  0  0  0  0
   14.4762   36.3274   33.5728 C   0  0  0  0  0  0  0  0  0  0  0  0
   13.1181   37.6318   34.5689 C   0  0  0  0  0  0  0  0  0  0  0  0
   15.2063   35.6141   32.6738 N   0  0  0  0  0  0  0  0  0  0  0  0
   14.6733   36.2275   34.9182 C   0  0  0  0  0  0  0  0  0  0  0  0
   13.8226   37.0457   35.5783 N   0  0  0  0  0  0  0  0  0  0  0  0
   16.1635   34.7595   33.1546 C   0  0  0  0  0  0  0  0  0  0  0  0
   15.6515   35.3492   35.4130 C   0  0  0  0  0  0  0  0  0  0  0  0
   16.3791   34.6310   34.5041 N   0  0  0  0  0  0  0  0  0  0  0  0
   15.9002   35.1934   36.8089 N   0  0  0  0  0  0  0  0  0  0  0  0
    9.8242   44.9817   32.1451 H   0  0  0  0  0  0  0  0  0  0  0  0
   10.9427   46.8846   32.9004 H   0  0  0  0  0  0  0  0  0  0  0  0
   11.0737   46.3267   34.4876 H   0  0  0  0  0  0  0  0  0  0  0  0
    7.8205   44.9120   33.6718 H   0  0  0  0  0  0  0  0  0  0  0  0
    8.7460   45.7702   34.9487 H   0  0  0  0  0  0  0  0  0  0  0  0
    6.8151   48.7764   31.7372 H   0  0  0  0  0  0  0  0  0  0  0  0
    7.0506   47.9061   30.2042 H   0  0  0  0  0  0  0  0  0  0  0  0
    8.0841   50.7341   31.7893 H   0  0  0  0  0  0  0  0  0  0  0  0
   12.0137   48.5644   29.6866 H   0  0  0  0  0  0  0  0  0  0  0  0
   10.1774   51.9818   31.4882 H   0  0  0  0  0  0  0  0  0  0  0  0
   12.1438   50.8951   30.4543 H   0  0  0  0  0  0  0  0  0  0  0  0
   11.3985   41.5437   31.4715 H   0  0  0  0  0  0  0  0  0  0  0  0
    9.8305   40.7373   31.7553 H   0  0  0  0  0  0  0  0  0  0  0  0
   11.7002   39.5045   30.3473 H   0  0  0  0  0  0  0  0  0  0  0  0
   10.1103   38.2620   32.6636 H   0  0  0  0  0  0  0  0  0  0  0  0
   13.6696   37.4588   31.2222 H   0  0  0  0  0  0  0  0  0  0  0  0
    8.9001   38.6883   30.8813 H   0  0  0  0  0  0  0  0  0  0  0  0
   11.2689   36.3070   32.5091 H   0  0  0  0  0  0  0  0  0  0  0  0
   12.1427   35.5151   30.6154 H   0  0  0  0  0  0  0  0  0  0  0  0
   12.3359   38.3593   34.7445 H   0  0  0  0  0  0  0  0  0  0  0  0
   16.7569   34.1789   32.4618 H   0  0  0  0  0  0  0  0  0  0  0  0
   16.6361   34.5315   37.1413 H   0  0  0  0  0  0  0  0  0  0  0  0
   15.3530   35.7356   37.5138 H   0  0  0  0  0  0  0  0  0  0  0  0
  1  2  2  0
  1  3  1  0
  3  4  1  0
  4  5  1  0
  6  1  1  0
  7  6  1  0
  6  8  1  0
  8  9  1  0
  9 10  1  0
  9 11  2  0
 10 12  1  0
 12 13  1  0
 13 14  2  0
 15 13  1  0
 14 16  1  0
 14 17  1  0
 18 15  2  0
 16 19  1  0
 16 20  2  0
 17 21  2  0
 21 18  1  0
  4 22  2  0
  4 23  1  0
 24 23  1  0
 24 25  1  0
 25 26  1  0
 25 27  1  0
 26 28  1  0
 27 29  1  0
 27 30  1  0
 30 28  1  0
 28 31  1  0
 30 32  1  0
 33 31  1  0
 34 31  1  0
 35 33  2  0
 33 36  1  0
 37 34  2  0
 38 35  1  0
 36 39  2  0
 36 37  1  0
 40 38  2  0
 40 39  1  0
 39 41  1  0
  6 42  1  6
  7 43  1  0
  7 44  1  0
  8 45  1  0
  8 46  1  0
 12 47  1  0
 12 48  1  0
 15 49  1  0
 17 50  1  0
 18 51  1  0
 21 52  1  0
 24 53  1  0
 24 54  1  0
 25 55  1  0
 27 56  1  0
 28 57  1  0
 29 58  1  0
 30 59  1  0
 32 60  1  0
 34 61  1  0
 38 62  1  0
 41 63  1  0
 41 64  1  0
M  CHG  3   5  -1  16   1  19  -1
M  END
>  <EmbedRMS>  (66) 
0.08900507424656769

$$$$

     RDKit          3D

 64 67  0  0  0  0  0  0  0  0999 V2000
   10.2861   43.7711   33.8099 C   0  0  0  0  0  0  0  0  0  0  0  0
   11.4098   43.5817   34.3617 O   0  0  0  0  0  0  0  0  0  0  0  0
    9.3666   42.7310   33.7019 O   0  0  0  0  0  0  0  0  0  0  0  0
    9.8844   41.2330   34.2841 P   0  0  0  0  0  5  0  0  0  0  0  0
   10.3655   41.4677   35.8746 O   0  0  0  0  0  1  0  0  0  0  0  0
    9.9613   45.1124   33.2466 C   0  0  2  0  0  0  0  0  0  0  0  0
   11.0658   46.0474   33.4752 N   0  0  0  0  0  0  0  0  0  0  0  0
    8.6646   45.6577   33.8685 C   0  0  0  0  0  0  0  0  0  0  0  0
    8.2802   46.9673   33.2530 C   0  0  0  0  0  0  0  0  0  0  0  0
    8.5974   48.1598   33.9139 O   0  0  0  0  0  0  0  0  0  0  0  0
    7.7060   46.9859   32.1299 O   0  0  0  0  0  0  0  0  0  0  0  0
    8.3363   49.4496   33.3607 C   0  0  0  0  0  0  0  0  0  0  0  0
    9.2660   49.7450   32.2029 C   0  0  0  0  0  0  0  0  0  0  0  0
    8.8284   50.4272   31.0366 C   0  0  0  0  0  0  0  0  0  0  0  0
   10.6110   49.3392   32.2925 C   0  0  0  0  0  0  0  0  0  0  0  0
    7.5033   50.9720   30.9281 N   0  0  0  0  0  4  0  0  0  0  0  0
    9.7203   50.5942   29.9630 C   0  0  0  0  0  0  0  0  0  0  0  0
   11.4867   49.5317   31.2233 C   0  0  0  0  0  0  0  0  0  0  0  0
    6.8707   50.9966   29.7065 O   0  0  0  0  0  1  0  0  0  0  0  0
    7.0128   51.6242   31.8728 O   0  0  0  0  0  0  0  0  0  0  0  0
   11.0387   50.1462   30.0557 C   0  0  0  0  0  0  0  0  0  0  0  0
    8.8069   40.1903   34.2081 O   0  0  0  0  0  0  0  0  0  0  0  0
   11.2364   40.7897   33.3679 O   0  0  0  0  0  0  0  0  0  0  0  0
   10.9150   40.6881   31.9948 C   0  0  0  0  0  0  0  0  0  0  0  0
   11.5259   39.3871   31.4365 C   0  0  0  0  0  0  0  0  0  0  0  0
   12.7490   39.0893   32.0820 O   0  0  0  0  0  0  0  0  0  0  0  0
   10.6122   38.1892   31.6461 C   0  0  0  0  0  0  0  0  0  0  0  0
   12.9373   37.6827   32.0301 C   0  0  0  0  0  0  0  0  0  0  0  0
    9.6150   38.0838   30.6537 O   0  0  0  0  0  0  0  0  0  0  0  0
   11.5792   37.0136   31.7014 C   0  0  0  0  0  0  0  0  0  0  0  0
   13.4906   37.2169   33.3242 N   0  0  0  0  0  0  0  0  0  0  0  0
   11.6216   36.3252   30.4725 O   0  0  0  0  0  0  0  0  0  0  0  0
   14.4764   36.3267   33.5730 C   0  0  0  0  0  0  0  0  0  0  0  0
   13.1180   37.6307   34.5694 C   0  0  0  0  0  0  0  0  0  0  0  0
   15.2066   35.6138   32.6740 N   0  0  0  0  0  0  0  0  0  0  0  0
   14.6736   36.2270   34.9184 C   0  0  0  0  0  0  0  0  0  0  0  0
   13.8228   37.0450   35.5787 N   0  0  0  0  0  0  0  0  0  0  0  0
   16.1640   34.7594   33.1547 C   0  0  0  0  0  0  0  0  0  0  0  0
   15.6519   35.3490   35.4131 C   0  0  0  0  0  0  0  0  0  0  0  0
   16.3795   34.6309   34.5042 N   0  0  0  0  0  0  0  0  0  0  0  0
   15.9006   35.1932   36.8090 N   0  0  0  0  0  0  0  0  0  0  0  0
    9.8124   44.9949   32.1502 H   0  0  0  0  0  0  0  0  0  0  0  0
   11.2746   46.1192   34.4986 H   0  0  0  0  0  0  0  0  0  0  0  0
   11.9227   45.7032   32.9829 H   0  0  0  0  0  0  0  0  0  0  0  0
    8.7939   45.7897   34.9652 H   0  0  0  0  0  0  0  0  0  0  0  0
    7.8342   44.9353   33.7094 H   0  0  0  0  0  0  0  0  0  0  0  0
    8.4978   50.2149   34.1480 H   0  0  0  0  0  0  0  0  0  0  0  0
    7.2694   49.4870   33.0572 H   0  0  0  0  0  0  0  0  0  0  0  0
   10.9813   48.8583   33.1890 H   0  0  0  0  0  0  0  0  0  0  0  0
    9.4011   51.1001   29.0606 H   0  0  0  0  0  0  0  0  0  0  0  0
   12.5142   49.2000   31.2996 H   0  0  0  0  0  0  0  0  0  0  0  0
   11.7190   50.2917   29.2264 H   0  0  0  0  0  0  0  0  0  0  0  0
   11.3825   41.5503   31.4728 H   0  0  0  0  0  0  0  0  0  0  0  0
    9.8249   40.7180   31.7577 H   0  0  0  0  0  0  0  0  0  0  0  0
   11.7290   39.5288   30.3504 H   0  0  0  0  0  0  0  0  0  0  0  0
   10.1138   38.2717   32.6379 H   0  0  0  0  0  0  0  0  0  0  0  0
   13.6724   37.4637   31.2240 H   0  0  0  0  0  0  0  0  0  0  0  0
   10.0535   38.1086   29.7638 H   0  0  0  0  0  0  0  0  0  0  0  0
   11.2645   36.3134   32.5107 H   0  0  0  0  0  0  0  0  0  0  0  0
   12.1550   35.5032   30.6315 H   0  0  0  0  0  0  0  0  0  0  0  0
   12.3357   38.3581   34.7450 H   0  0  0  0  0  0  0  0  0  0  0  0
   16.7576   34.1791   32.4619 H   0  0  0  0  0  0  0  0  0  0  0  0
   15.3533   35.7355   37.5138 H   0  0  0  0  0  0  0  0  0  0  0  0
   16.6366   34.5315   37.1415 H   0  0  0  0  0  0  0  0  0  0  0  0
  1  2  2  0
  1  3  1  0
  3  4  1  0
  4  5  1  0
  6  1  1  0
  7  6  1  0
  6  8  1  0
  8  9  1  0
  9 10  1  0
  9 11  2  0
 10 12  1  0
 12 13  1  0
 13 14  2  0
 15 13  1  0
 14 16  1  0
 14 17  1  0
 18 15  2  0
 16 19  1  0
 16 20  2  0
 17 21  2  0
 21 18  1  0
  4 22  2  0
  4 23  1  0
 24 23  1  0
 24 25  1  0
 25 26  1  0
 25 27  1  0
 26 28  1  0
 27 29  1  0
 27 30  1  0
 30 28  1  0
 28 31  1  0
 30 32  1  0
 33 31  1  0
 34 31  1  0
 35 33  2  0
 33 36  1  0
 37 34  2  0
 38 35  1  0
 36 39  2  0
 36 37  1  0
 40 38  2  0
 40 39  1  0
 39 41  1  0
  6 42  1  6
  7 43  1  0
  7 44  1  0
  8 45  1  0
  8 46  1  0
 12 47  1  0
 12 48  1  0
 15 49  1  0
 17 50  1  0
 18 51  1  0
 21 52  1  0
 24 53  1  0
 24 54  1  0
 25 55  1  0
 27 56  1  0
 28 57  1  0
 29 58  1  0
 30 59  1  0
 32 60  1  0
 34 61  1  0
 38 62  1  0
 41 63  1  0
 41 64  1  0
M  CHG  3   5  -1  16   1  19  -1
M  END
>  <EmbedRMS>  (67) 
0.08838772291908267

$$$$

     RDKit          3D

 64 67  0  0  0  0  0  0  0  0999 V2000
   10.2845   43.7734   33.8092 C   0  0  0  0  0  0  0  0  0  0  0  0
   11.4074   43.5894   34.3646 O   0  0  0  0  0  0  0  0  0  0  0  0
    9.3667   42.7319   33.7023 O   0  0  0  0  0  0  0  0  0  0  0  0
    9.8853   41.2342   34.2832 P   0  0  0  0  0  5  0  0  0  0  0  0
   10.3677   41.4665   35.8721 O   0  0  0  0  0  1  0  0  0  0  0  0
    9.9545   45.1135   33.2498 C   0  0  2  0  0  0  0  0  0  0  0  0
   11.0720   46.0329   33.4736 N   0  0  0  0  0  0  0  0  0  0  0  0
    8.6571   45.6695   33.8722 C   0  0  0  0  0  0  0  0  0  0  0  0
    8.8084   45.9559   35.3362 C   0  0  0  0  0  0  0  0  0  0  0  0
    8.5846   44.9331   36.2654 O   0  0  0  0  0  0  0  0  0  0  0  0
    9.1621   47.1066   35.7125 O   0  0  0  0  0  0  0  0  0  0  0  0
    8.9143   45.0348   37.6502 C   0  0  0  0  0  0  0  0  0  0  0  0
   10.2938   44.4663   37.8926 C   0  0  0  0  0  0  0  0  0  0  0  0
   10.5017   43.2051   38.5095 C   0  0  0  0  0  0  0  0  0  0  0  0
   11.4042   45.1747   37.3983 C   0  0  0  0  0  0  0  0  0  0  0  0
    9.4191   42.4585   39.0827 N   0  0  0  0  0  4  0  0  0  0  0  0
   11.8019   42.6755   38.5767 C   0  0  0  0  0  0  0  0  0  0  0  0
   12.6900   44.6392   37.4864 C   0  0  0  0  0  0  0  0  0  0  0  0
    8.6483   43.0258   40.0709 O   0  0  0  0  0  1  0  0  0  0  0  0
    9.3458   41.2268   38.8938 O   0  0  0  0  0  0  0  0  0  0  0  0
   12.8876   43.3882   38.0671 C   0  0  0  0  0  0  0  0  0  0  0  0
    8.8077   40.1914   34.2080 O   0  0  0  0  0  0  0  0  0  0  0  0
   11.2368   40.7917   33.3663 O   0  0  0  0  0  0  0  0  0  0  0  0
   10.9133   40.6862   31.9940 C   0  0  0  0  0  0  0  0  0  0  0  0
   11.5169   39.3797   31.4408 C   0  0  0  0  0  0  0  0  0  0  0  0
   12.7487   39.0887   32.0763 O   0  0  0  0  0  0  0  0  0  0  0  0
   10.6051   38.1876   31.6660 C   0  0  0  0  0  0  0  0  0  0  0  0
   12.9412   37.6830   32.0278 C   0  0  0  0  0  0  0  0  0  0  0  0
    9.6358   38.0930   30.6504 O   0  0  0  0  0  0  0  0  0  0  0  0
   11.5827   37.0180   31.6936 C   0  0  0  0  0  0  0  0  0  0  0  0
   13.4909   37.2178   33.3240 N   0  0  0  0  0  0  0  0  0  0  0  0
   11.6142   36.3181   30.4674 O   0  0  0  0  0  0  0  0  0  0  0  0
   14.4762   36.3270   33.5734 C   0  0  0  0  0  0  0  0  0  0  0  0
   13.1180   37.6319   34.5690 C   0  0  0  0  0  0  0  0  0  0  0  0
   15.2067   35.6141   32.6744 N   0  0  0  0  0  0  0  0  0  0  0  0
   14.6731   36.2273   34.9187 C   0  0  0  0  0  0  0  0  0  0  0  0
   13.8223   37.0457   35.5786 N   0  0  0  0  0  0  0  0  0  0  0  0
   16.1639   34.7596   33.1551 C   0  0  0  0  0  0  0  0  0  0  0  0
   15.6514   35.3491   35.4135 C   0  0  0  0  0  0  0  0  0  0  0  0
   16.3792   34.6310   34.5046 N   0  0  0  0  0  0  0  0  0  0  0  0
   15.9002   35.1933   36.8093 N   0  0  0  0  0  0  0  0  0  0  0  0
    9.7917   44.9961   32.1547 H   0  0  0  0  0  0  0  0  0  0  0  0
   11.8867   45.7085   32.9020 H   0  0  0  0  0  0  0  0  0  0  0  0
   10.8125   46.9688   33.0847 H   0  0  0  0  0  0  0  0  0  0  0  0
    8.3692   46.6047   33.3440 H   0  0  0  0  0  0  0  0  0  0  0  0
    7.8249   44.9475   33.7244 H   0  0  0  0  0  0  0  0  0  0  0  0
    8.1374   44.4916   38.2175 H   0  0  0  0  0  0  0  0  0  0  0  0
    8.8697   46.0900   37.9975 H   0  0  0  0  0  0  0  0  0  0  0  0
   11.2756   46.1399   36.9273 H   0  0  0  0  0  0  0  0  0  0  0  0
   11.9747   41.7123   39.0402 H   0  0  0  0  0  0  0  0  0  0  0  0
   13.5337   45.1920   37.0939 H   0  0  0  0  0  0  0  0  0  0  0  0
   13.8850   42.9724   38.1293 H   0  0  0  0  0  0  0  0  0  0  0  0
    9.8232   40.7210   31.7576 H   0  0  0  0  0  0  0  0  0  0  0  0
   11.3851   41.5434   31.4678 H   0  0  0  0  0  0  0  0  0  0  0  0
   11.6994   39.5063   30.3486 H   0  0  0  0  0  0  0  0  0  0  0  0
   10.1122   38.2723   32.6633 H   0  0  0  0  0  0  0  0  0  0  0  0
   13.6817   37.4634   31.2270 H   0  0  0  0  0  0  0  0  0  0  0  0
    9.0036   37.3827   30.9352 H   0  0  0  0  0  0  0  0  0  0  0  0
   11.2847   36.3040   32.4928 H   0  0  0  0  0  0  0  0  0  0  0  0
   11.8851   36.9592   29.7588 H   0  0  0  0  0  0  0  0  0  0  0  0
   12.3366   38.3604   34.7442 H   0  0  0  0  0  0  0  0  0  0  0  0
   16.7575   34.1792   32.4623 H   0  0  0  0  0  0  0  0  0  0  0  0
   15.3529   35.7356   37.5142 H   0  0  0  0  0  0  0  0  0  0  0  0
   16.6362   34.5316   37.1418 H   0  0  0  0  0  0  0  0  0  0  0  0
  1  2  2  0
  1  3  1  0
  3  4  1  0
  4  5  1  0
  6  1  1  0
  7  6  1  0
  6  8  1  0
  8  9  1  0
  9 10  1  0
  9 11  2  0
 10 12  1  0
 12 13  1  0
 13 14  2  0
 15 13  1  0
 14 16  1  0
 14 17  1  0
 18 15  2  0
 16 19  1  0
 16 20  2  0
 17 21  2  0
 21 18  1  0
  4 22  2  0
  4 23  1  0
 24 23  1  0
 24 25  1  0
 25 26  1  0
 25 27  1  0
 26 28  1  0
 27 29  1  0
 27 30  1  0
 30 28  1  0
 28 31  1  0
 30 32  1  0
 33 31  1  0
 34 31  1  0
 35 33  2  0
 33 36  1  0
 37 34  2  0
 38 35  1  0
 36 39  2  0
 36 37  1  0
 40 38  2  0
 40 39  1  0
 39 41  1  0
  6 42  1  6
  7 43  1  0
  7 44  1  0
  8 45  1  0
  8 46  1  0
 12 47  1  0
 12 48  1  0
 15 49  1  0
 17 50  1  0
 18 51  1  0
 21 52  1  0
 24 53  1  0
 24 54  1  0
 25 55  1  0
 27 56  1  0
 28 57  1  0
 29 58  1  0
 30 59  1  0
 32 60  1  0
 34 61  1  0
 38 62  1  0
 41 63  1  0
 41 64  1  0
M  CHG  3   5  -1  16   1  19  -1
M  END
>  <EmbedRMS>  (68) 
0.08786404521981012

$$$$

     RDKit          3D

 64 67  0  0  0  0  0  0  0  0999 V2000
   10.2877   43.7688   33.8085 C   0  0  0  0  0  0  0  0  0  0  0  0
   11.4116   43.5793   34.3595 O   0  0  0  0  0  0  0  0  0  0  0  0
    9.3666   42.7304   33.7017 O   0  0  0  0  0  0  0  0  0  0  0  0
    9.8844   41.2326   34.2836 P   0  0  0  0  0  5  0  0  0  0  0  0
   10.3656   41.4677   35.8740 O   0  0  0  0  0  1  0  0  0  0  0  0
    9.9639   45.1116   33.2469 C   0  0  2  0  0  0  0  0  0  0  0  0
   11.0619   46.0542   33.4766 N   0  0  0  0  0  0  0  0  0  0  0  0
    8.6425   45.6681   33.8110 C   0  0  0  0  0  0  0  0  0  0  0  0
    8.6677   45.8272   35.3022 C   0  0  0  0  0  0  0  0  0  0  0  0
    9.1015   47.0357   35.8580 O   0  0  0  0  0  0  0  0  0  0  0  0
    8.3273   44.8632   36.0414 O   0  0  0  0  0  0  0  0  0  0  0  0
    9.1502   47.2767   37.2629 C   0  0  0  0  0  0  0  0  0  0  0  0
    7.7563   47.3621   37.8423 C   0  0  0  0  0  0  0  0  0  0  0  0
    6.7735   48.2525   37.3281 C   0  0  0  0  0  0  0  0  0  0  0  0
    7.4139   46.4980   38.8988 C   0  0  0  0  0  0  0  0  0  0  0  0
    7.0585   49.1730   36.2585 N   0  0  0  0  0  4  0  0  0  0  0  0
    5.4749   48.2220   37.8671 C   0  0  0  0  0  0  0  0  0  0  0  0
    6.1233   46.4965   39.4288 C   0  0  0  0  0  0  0  0  0  0  0  0
    6.0556   49.5578   35.3985 O   0  0  0  0  0  1  0  0  0  0  0  0
    8.1598   49.7560   36.1928 O   0  0  0  0  0  0  0  0  0  0  0  0
    5.1547   47.3532   38.9109 C   0  0  0  0  0  0  0  0  0  0  0  0
    8.8065   40.1903   34.2080 O   0  0  0  0  0  0  0  0  0  0  0  0
   11.2363   40.7897   33.3664 O   0  0  0  0  0  0  0  0  0  0  0  0
   10.9140   40.6849   31.9934 C   0  0  0  0  0  0  0  0  0  0  0  0
   11.5165   39.3773   31.4394 C   0  0  0  0  0  0  0  0  0  0  0  0
   12.7471   39.0855   32.0739 O   0  0  0  0  0  0  0  0  0  0  0  0
   10.6047   38.1867   31.6670 C   0  0  0  0  0  0  0  0  0  0  0  0
   12.9345   37.6791   32.0282 C   0  0  0  0  0  0  0  0  0  0  0  0
    9.6378   38.0917   30.6488 O   0  0  0  0  0  0  0  0  0  0  0  0
   11.5761   37.0129   31.7056 C   0  0  0  0  0  0  0  0  0  0  0  0
   13.4909   37.2177   33.3233 N   0  0  0  0  0  0  0  0  0  0  0  0
   11.6234   36.3371   30.4684 O   0  0  0  0  0  0  0  0  0  0  0  0
   14.4765   36.3272   33.5727 C   0  0  0  0  0  0  0  0  0  0  0  0
   13.1182   37.6316   34.5685 C   0  0  0  0  0  0  0  0  0  0  0  0
   15.2066   35.6137   32.6739 N   0  0  0  0  0  0  0  0  0  0  0  0
   14.6736   36.2276   34.9182 C   0  0  0  0  0  0  0  0  0  0  0  0
   13.8227   37.0457   35.5781 N   0  0  0  0  0  0  0  0  0  0  0  0
   16.1638   34.7593   33.1547 C   0  0  0  0  0  0  0  0  0  0  0  0
   15.6517   35.3492   35.4131 C   0  0  0  0  0  0  0  0  0  0  0  0
   16.3792   34.6309   34.5043 N   0  0  0  0  0  0  0  0  0  0  0  0
   15.9002   35.1934   36.8090 N   0  0  0  0  0  0  0  0  0  0  0  0
    9.8333   44.9918   32.1488 H   0  0  0  0  0  0  0  0  0  0  0  0
   11.3019   46.0980   34.4943 H   0  0  0  0  0  0  0  0  0  0  0  0
   11.9100   45.7270   32.9580 H   0  0  0  0  0  0  0  0  0  0  0  0
    7.8030   44.9960   33.5275 H   0  0  0  0  0  0  0  0  0  0  0  0
    8.4370   46.6571   33.3474 H   0  0  0  0  0  0  0  0  0  0  0  0
    9.6870   48.2283   37.4539 H   0  0  0  0  0  0  0  0  0  0  0  0
    9.7495   46.4754   37.7488 H   0  0  0  0  0  0  0  0  0  0  0  0
    8.1448   45.8115   39.3083 H   0  0  0  0  0  0  0  0  0  0  0  0
    4.7090   48.8868   37.4883 H   0  0  0  0  0  0  0  0  0  0  0  0
    5.8722   45.8238   40.2387 H   0  0  0  0  0  0  0  0  0  0  0  0
    4.1530   47.3468   39.3211 H   0  0  0  0  0  0  0  0  0  0  0  0
    9.8241   40.7213   31.7565 H   0  0  0  0  0  0  0  0  0  0  0  0
   11.3873   41.5416   31.4677 H   0  0  0  0  0  0  0  0  0  0  0  0
   11.6985   39.5014   30.3468 H   0  0  0  0  0  0  0  0  0  0  0  0
   10.1095   38.2769   32.6629 H   0  0  0  0  0  0  0  0  0  0  0  0
   13.6672   37.4545   31.2213 H   0  0  0  0  0  0  0  0  0  0  0  0
    8.9779   37.4156   30.9533 H   0  0  0  0  0  0  0  0  0  0  0  0
   11.2861   36.3041   32.5176 H   0  0  0  0  0  0  0  0  0  0  0  0
   10.8690   35.6918   30.4657 H   0  0  0  0  0  0  0  0  0  0  0  0
   12.3356   38.3587   34.7440 H   0  0  0  0  0  0  0  0  0  0  0  0
   16.7572   34.1786   32.4621 H   0  0  0  0  0  0  0  0  0  0  0  0
   16.6361   34.5315   37.1415 H   0  0  0  0  0  0  0  0  0  0  0  0
   15.3530   35.7358   37.5138 H   0  0  0  0  0  0  0  0  0  0  0  0
  1  2  2  0
  1  3  1  0
  3  4  1  0
  4  5  1  0
  6  1  1  0
  7  6  1  0
  6  8  1  0
  8  9  1  0
  9 10  1  0
  9 11  2  0
 10 12  1  0
 12 13  1  0
 13 14  2  0
 15 13  1  0
 14 16  1  0
 14 17  1  0
 18 15  2  0
 16 19  1  0
 16 20  2  0
 17 21  2  0
 21 18  1  0
  4 22  2  0
  4 23  1  0
 24 23  1  0
 24 25  1  0
 25 26  1  0
 25 27  1  0
 26 28  1  0
 27 29  1  0
 27 30  1  0
 30 28  1  0
 28 31  1  0
 30 32  1  0
 33 31  1  0
 34 31  1  0
 35 33  2  0
 33 36  1  0
 37 34  2  0
 38 35  1  0
 36 39  2  0
 36 37  1  0
 40 38  2  0
 40 39  1  0
 39 41  1  0
  6 42  1  6
  7 43  1  0
  7 44  1  0
  8 45  1  0
  8 46  1  0
 12 47  1  0
 12 48  1  0
 15 49  1  0
 17 50  1  0
 18 51  1  0
 21 52  1  0
 24 53  1  0
 24 54  1  0
 25 55  1  0
 27 56  1  0
 28 57  1  0
 29 58  1  0
 30 59  1  0
 32 60  1  0
 34 61  1  0
 38 62  1  0
 41 63  1  0
 41 64  1  0
M  CHG  3   5  -1  16   1  19  -1
M  END
>  <EmbedRMS>  (69) 
0.08965434576277363

$$$$

     RDKit          3D

 64 67  0  0  0  0  0  0  0  0999 V2000
   10.2873   43.7703   33.8002 C   0  0  0  0  0  0  0  0  0  0  0  0
   11.4099   43.5853   34.3554 O   0  0  0  0  0  0  0  0  0  0  0  0
    9.3669   42.7308   33.6982 O   0  0  0  0  0  0  0  0  0  0  0  0
    9.8850   41.2346   34.2845 P   0  0  0  0  0  5  0  0  0  0  0  0
   10.3659   41.4717   35.8747 O   0  0  0  0  0  1  0  0  0  0  0  0
    9.9526   45.1162   33.2550 C   0  0  2  0  0  0  0  0  0  0  0  0
   11.0701   46.0337   33.4818 N   0  0  0  0  0  0  0  0  0  0  0  0
    8.6595   45.6660   33.8930 C   0  0  0  0  0  0  0  0  0  0  0  0
    8.7264   45.6915   35.3919 C   0  0  0  0  0  0  0  0  0  0  0  0
    9.5579   46.6154   36.0352 O   0  0  0  0  0  0  0  0  0  0  0  0
    8.0588   44.8544   36.0592 O   0  0  0  0  0  0  0  0  0  0  0  0
    9.7898   46.5967   37.4424 C   0  0  0  0  0  0  0  0  0  0  0  0
   10.6259   45.3958   37.8246 C   0  0  0  0  0  0  0  0  0  0  0  0
   11.9214   45.1619   37.2829 C   0  0  0  0  0  0  0  0  0  0  0  0
   10.0626   44.4412   38.6923 C   0  0  0  0  0  0  0  0  0  0  0  0
   12.5618   46.0954   36.3898 N   0  0  0  0  0  4  0  0  0  0  0  0
   12.5924   43.9687   37.6140 C   0  0  0  0  0  0  0  0  0  0  0  0
   10.7530   43.2732   39.0149 C   0  0  0  0  0  0  0  0  0  0  0  0
   12.3920   47.4514   36.5401 O   0  0  0  0  0  1  0  0  0  0  0  0
   13.4126   45.6917   35.5698 O   0  0  0  0  0  0  0  0  0  0  0  0
   12.0135   43.0356   38.4738 C   0  0  0  0  0  0  0  0  0  0  0  0
    8.8076   40.1916   34.2097 O   0  0  0  0  0  0  0  0  0  0  0  0
   11.2365   40.7905   33.3680 O   0  0  0  0  0  0  0  0  0  0  0  0
   10.9136   40.6861   31.9953 C   0  0  0  0  0  0  0  0  0  0  0  0
   11.5169   39.3799   31.4412 C   0  0  0  0  0  0  0  0  0  0  0  0
   12.7488   39.0887   32.0764 O   0  0  0  0  0  0  0  0  0  0  0  0
   10.6051   38.1877   31.6660 C   0  0  0  0  0  0  0  0  0  0  0  0
   12.9412   37.6829   32.0279 C   0  0  0  0  0  0  0  0  0  0  0  0
    9.6359   38.0932   30.6503 O   0  0  0  0  0  0  0  0  0  0  0  0
   11.5827   37.0180   31.6937 C   0  0  0  0  0  0  0  0  0  0  0  0
   13.4909   37.2177   33.3240 N   0  0  0  0  0  0  0  0  0  0  0  0
   11.6141   36.3181   30.4675 O   0  0  0  0  0  0  0  0  0  0  0  0
   14.4762   36.3270   33.5734 C   0  0  0  0  0  0  0  0  0  0  0  0
   13.1180   37.6318   34.5689 C   0  0  0  0  0  0  0  0  0  0  0  0
   15.2067   35.6140   32.6744 N   0  0  0  0  0  0  0  0  0  0  0  0
   14.6731   36.2273   34.9187 C   0  0  0  0  0  0  0  0  0  0  0  0
   13.8223   37.0457   35.5786 N   0  0  0  0  0  0  0  0  0  0  0  0
   16.1639   34.7595   33.1551 C   0  0  0  0  0  0  0  0  0  0  0  0
   15.6515   35.3492   35.4135 C   0  0  0  0  0  0  0  0  0  0  0  0
   16.3792   34.6310   34.5046 N   0  0  0  0  0  0  0  0  0  0  0  0
   15.9002   35.1934   36.8093 N   0  0  0  0  0  0  0  0  0  0  0  0
    9.7839   45.0137   32.1593 H   0  0  0  0  0  0  0  0  0  0  0  0
   11.8842   45.7118   32.9080 H   0  0  0  0  0  0  0  0  0  0  0  0
   10.8130   46.9725   33.0987 H   0  0  0  0  0  0  0  0  0  0  0  0
    8.4659   46.6958   33.5236 H   0  0  0  0  0  0  0  0  0  0  0  0
    7.7977   45.0406   33.5706 H   0  0  0  0  0  0  0  0  0  0  0  0
    8.8124   46.6024   37.9735 H   0  0  0  0  0  0  0  0  0  0  0  0
   10.3028   47.5292   37.7501 H   0  0  0  0  0  0  0  0  0  0  0  0
    9.0752   44.5918   39.1112 H   0  0  0  0  0  0  0  0  0  0  0  0
   13.5766   43.7632   37.2124 H   0  0  0  0  0  0  0  0  0  0  0  0
   10.3047   42.5459   39.6795 H   0  0  0  0  0  0  0  0  0  0  0  0
   12.5446   42.1254   38.7209 H   0  0  0  0  0  0  0  0  0  0  0  0
   11.3858   41.5436   31.4698 H   0  0  0  0  0  0  0  0  0  0  0  0
    9.8236   40.7212   31.7586 H   0  0  0  0  0  0  0  0  0  0  0  0
   11.6993   39.5069   30.3491 H   0  0  0  0  0  0  0  0  0  0  0  0
   10.1120   38.2722   32.6633 H   0  0  0  0  0  0  0  0  0  0  0  0
   13.6816   37.4633   31.2270 H   0  0  0  0  0  0  0  0  0  0  0  0
    9.0037   37.3829   30.9349 H   0  0  0  0  0  0  0  0  0  0  0  0
   11.2846   36.3041   32.4929 H   0  0  0  0  0  0  0  0  0  0  0  0
   11.8849   36.9591   29.7589 H   0  0  0  0  0  0  0  0  0  0  0  0
   12.3365   38.3602   34.7442 H   0  0  0  0  0  0  0  0  0  0  0  0
   16.7574   34.1791   32.4623 H   0  0  0  0  0  0  0  0  0  0  0  0
   16.6363   34.5317   37.1418 H   0  0  0  0  0  0  0  0  0  0  0  0
   15.3530   35.7356   37.5141 H   0  0  0  0  0  0  0  0  0  0  0  0
  1  2  2  0
  1  3  1  0
  3  4  1  0
  4  5  1  0
  6  1  1  0
  7  6  1  0
  6  8  1  0
  8  9  1  0
  9 10  1  0
  9 11  2  0
 10 12  1  0
 12 13  1  0
 13 14  2  0
 15 13  1  0
 14 16  1  0
 14 17  1  0
 18 15  2  0
 16 19  1  0
 16 20  2  0
 17 21  2  0
 21 18  1  0
  4 22  2  0
  4 23  1  0
 24 23  1  0
 24 25  1  0
 25 26  1  0
 25 27  1  0
 26 28  1  0
 27 29  1  0
 27 30  1  0
 30 28  1  0
 28 31  1  0
 30 32  1  0
 33 31  1  0
 34 31  1  0
 35 33  2  0
 33 36  1  0
 37 34  2  0
 38 35  1  0
 36 39  2  0
 36 37  1  0
 40 38  2  0
 40 39  1  0
 39 41  1  0
  6 42  1  6
  7 43  1  0
  7 44  1  0
  8 45  1  0
  8 46  1  0
 12 47  1  0
 12 48  1  0
 15 49  1  0
 17 50  1  0
 18 51  1  0
 21 52  1  0
 24 53  1  0
 24 54  1  0
 25 55  1  0
 27 56  1  0
 28 57  1  0
 29 58  1  0
 30 59  1  0
 32 60  1  0
 34 61  1  0
 38 62  1  0
 41 63  1  0
 41 64  1  0
M  CHG  3   5  -1  16   1  19  -1
M  END
>  <EmbedRMS>  (70) 
0.08770701755052233

$$$$

     RDKit          3D

 64 67  0  0  0  0  0  0  0  0999 V2000
   10.2859   43.7720   33.8045 C   0  0  0  0  0  0  0  0  0  0  0  0
   11.4085   43.5885   34.3609 O   0  0  0  0  0  0  0  0  0  0  0  0
    9.3674   42.7309   33.6991 O   0  0  0  0  0  0  0  0  0  0  0  0
    9.8856   41.2340   34.2830 P   0  0  0  0  0  5  0  0  0  0  0  0
   10.3666   41.4697   35.8734 O   0  0  0  0  0  1  0  0  0  0  0  0
    9.9527   45.1150   33.2538 C   0  0  2  0  0  0  0  0  0  0  0  0
   11.0716   46.0330   33.4765 N   0  0  0  0  0  0  0  0  0  0  0  0
    8.6603   45.6657   33.8907 C   0  0  0  0  0  0  0  0  0  0  0  0
    8.7911   45.8526   35.3733 C   0  0  0  0  0  0  0  0  0  0  0  0
    9.4518   46.9803   35.8672 O   0  0  0  0  0  0  0  0  0  0  0  0
    8.3395   44.9752   36.1592 O   0  0  0  0  0  0  0  0  0  0  0  0
    9.6645   47.2014   37.2590 C   0  0  0  0  0  0  0  0  0  0  0  0
   10.4683   48.4611   37.4867 C   0  0  0  0  0  0  0  0  0  0  0  0
   10.3235   49.2308   38.6714 C   0  0  0  0  0  0  0  0  0  0  0  0
   11.4079   48.8680   36.5184 C   0  0  0  0  0  0  0  0  0  0  0  0
    9.4632   48.8097   39.7445 N   0  0  0  0  0  4  0  0  0  0  0  0
   11.0534   50.4256   38.8087 C   0  0  0  0  0  0  0  0  0  0  0  0
   12.1363   50.0469   36.6829 C   0  0  0  0  0  0  0  0  0  0  0  0
    9.4396   47.4919   40.1397 O   0  0  0  0  0  1  0  0  0  0  0  0
    8.8799   49.6590   40.4495 O   0  0  0  0  0  0  0  0  0  0  0  0
   11.9504   50.8304   37.8198 C   0  0  0  0  0  0  0  0  0  0  0  0
    8.8078   40.1914   34.2082 O   0  0  0  0  0  0  0  0  0  0  0  0
   11.2369   40.7903   33.3658 O   0  0  0  0  0  0  0  0  0  0  0  0
   10.9136   40.6843   31.9931 C   0  0  0  0  0  0  0  0  0  0  0  0
   11.5175   39.3773   31.4394 C   0  0  0  0  0  0  0  0  0  0  0  0
   12.7477   39.0869   32.0756 O   0  0  0  0  0  0  0  0  0  0  0  0
   10.6069   38.1851   31.6657 C   0  0  0  0  0  0  0  0  0  0  0  0
   12.9372   37.6811   32.0290 C   0  0  0  0  0  0  0  0  0  0  0  0
    9.6404   38.0882   30.6475 O   0  0  0  0  0  0  0  0  0  0  0  0
   11.5789   37.0134   31.7045 C   0  0  0  0  0  0  0  0  0  0  0  0
   13.4915   37.2182   33.3239 N   0  0  0  0  0  0  0  0  0  0  0  0
   11.6125   36.3389   30.4674 O   0  0  0  0  0  0  0  0  0  0  0  0
   14.4766   36.3272   33.5730 C   0  0  0  0  0  0  0  0  0  0  0  0
   13.1184   37.6317   34.5690 C   0  0  0  0  0  0  0  0  0  0  0  0
   15.2066   35.6139   32.6741 N   0  0  0  0  0  0  0  0  0  0  0  0
   14.6735   36.2274   34.9184 C   0  0  0  0  0  0  0  0  0  0  0  0
   13.8228   37.0455   35.5785 N   0  0  0  0  0  0  0  0  0  0  0  0
   16.1638   34.7593   33.1548 C   0  0  0  0  0  0  0  0  0  0  0  0
   15.6517   35.3491   35.4132 C   0  0  0  0  0  0  0  0  0  0  0  0
   16.3792   34.6308   34.5043 N   0  0  0  0  0  0  0  0  0  0  0  0
   15.9004   35.1932   36.8091 N   0  0  0  0  0  0  0  0  0  0  0  0
    9.7823   45.0061   32.1590 H   0  0  0  0  0  0  0  0  0  0  0  0
   11.8820   45.7133   32.8965 H   0  0  0  0  0  0  0  0  0  0  0  0
   10.8101   46.9725   33.0978 H   0  0  0  0  0  0  0  0  0  0  0  0
    8.4092   46.6443   33.4279 H   0  0  0  0  0  0  0  0  0  0  0  0
    7.8124   44.9794   33.6733 H   0  0  0  0  0  0  0  0  0  0  0  0
   10.2173   46.3407   37.6935 H   0  0  0  0  0  0  0  0  0  0  0  0
    8.6702   47.2847   37.7472 H   0  0  0  0  0  0  0  0  0  0  0  0
   11.5738   48.2789   35.6252 H   0  0  0  0  0  0  0  0  0  0  0  0
   10.9478   51.0321   39.6993 H   0  0  0  0  0  0  0  0  0  0  0  0
   12.8452   50.3546   35.9251 H   0  0  0  0  0  0  0  0  0  0  0  0
   12.5148   51.7457   37.9434 H   0  0  0  0  0  0  0  0  0  0  0  0
   11.3851   41.5414   31.4665 H   0  0  0  0  0  0  0  0  0  0  0  0
    9.8234   40.7188   31.7570 H   0  0  0  0  0  0  0  0  0  0  0  0
   11.7007   39.5017   30.3471 H   0  0  0  0  0  0  0  0  0  0  0  0
   10.1098   38.2751   32.6606 H   0  0  0  0  0  0  0  0  0  0  0  0
   13.6713   37.4591   31.2227 H   0  0  0  0  0  0  0  0  0  0  0  0
    9.0033   37.3835   30.9351 H   0  0  0  0  0  0  0  0  0  0  0  0
   11.2706   36.3048   32.5088 H   0  0  0  0  0  0  0  0  0  0  0  0
   12.1443   35.5136   30.6141 H   0  0  0  0  0  0  0  0  0  0  0  0
   12.3362   38.3592   34.7445 H   0  0  0  0  0  0  0  0  0  0  0  0
   16.7571   34.1787   32.4620 H   0  0  0  0  0  0  0  0  0  0  0  0
   16.6363   34.5314   37.1416 H   0  0  0  0  0  0  0  0  0  0  0  0
   15.3532   35.7356   37.5139 H   0  0  0  0  0  0  0  0  0  0  0  0
  1  2  2  0
  1  3  1  0
  3  4  1  0
  4  5  1  0
  6  1  1  0
  7  6  1  0
  6  8  1  0
  8  9  1  0
  9 10  1  0
  9 11  2  0
 10 12  1  0
 12 13  1  0
 13 14  2  0
 15 13  1  0
 14 16  1  0
 14 17  1  0
 18 15  2  0
 16 19  1  0
 16 20  2  0
 17 21  2  0
 21 18  1  0
  4 22  2  0
  4 23  1  0
 24 23  1  0
 24 25  1  0
 25 26  1  0
 25 27  1  0
 26 28  1  0
 27 29  1  0
 27 30  1  0
 30 28  1  0
 28 31  1  0
 30 32  1  0
 33 31  1  0
 34 31  1  0
 35 33  2  0
 33 36  1  0
 37 34  2  0
 38 35  1  0
 36 39  2  0
 36 37  1  0
 40 38  2  0
 40 39  1  0
 39 41  1  0
  6 42  1  6
  7 43  1  0
  7 44  1  0
  8 45  1  0
  8 46  1  0
 12 47  1  0
 12 48  1  0
 15 49  1  0
 17 50  1  0
 18 51  1  0
 21 52  1  0
 24 53  1  0
 24 54  1  0
 25 55  1  0
 27 56  1  0
 28 57  1  0
 29 58  1  0
 30 59  1  0
 32 60  1  0
 34 61  1  0
 38 62  1  0
 41 63  1  0
 41 64  1  0
M  CHG  3   5  -1  16   1  19  -1
M  END
>  <EmbedRMS>  (71) 
0.08883220718681396

$$$$

     RDKit          3D

 64 67  0  0  0  0  0  0  0  0999 V2000
   10.2844   43.7743   33.8072 C   0  0  0  0  0  0  0  0  0  0  0  0
   11.4069   43.5905   34.3637 O   0  0  0  0  0  0  0  0  0  0  0  0
    9.3680   42.7310   33.6989 O   0  0  0  0  0  0  0  0  0  0  0  0
    9.8863   41.2340   34.2827 P   0  0  0  0  0  5  0  0  0  0  0  0
   10.3671   41.4692   35.8732 O   0  0  0  0  0  1  0  0  0  0  0  0
    9.9496   45.1159   33.2538 C   0  0  2  0  0  0  0  0  0  0  0  0
   11.0748   46.0281   33.4735 N   0  0  0  0  0  0  0  0  0  0  0  0
    8.6774   45.6540   33.9381 C   0  0  0  0  0  0  0  0  0  0  0  0
    8.1702   46.8905   33.2623 C   0  0  0  0  0  0  0  0  0  0  0  0
    7.5965   46.7903   31.9920 O   0  0  0  0  0  0  0  0  0  0  0  0
    8.2813   48.0101   33.8326 O   0  0  0  0  0  0  0  0  0  0  0  0
    7.1080   47.9213   31.2752 C   0  0  0  0  0  0  0  0  0  0  0  0
    6.5355   47.5075   29.9385 C   0  0  0  0  0  0  0  0  0  0  0  0
    6.5298   48.3927   28.8279 C   0  0  0  0  0  0  0  0  0  0  0  0
    5.9672   46.2260   29.7931 C   0  0  0  0  0  0  0  0  0  0  0  0
    6.9973   49.7484   28.9409 N   0  0  0  0  0  4  0  0  0  0  0  0
    6.0390   47.9396   27.5897 C   0  0  0  0  0  0  0  0  0  0  0  0
    5.4682   45.8028   28.5605 C   0  0  0  0  0  0  0  0  0  0  0  0
    6.6682   50.5079   30.0400 O   0  0  0  0  0  1  0  0  0  0  0  0
    7.5400   50.3071   27.9651 O   0  0  0  0  0  0  0  0  0  0  0  0
    5.5150   46.6534   27.4582 C   0  0  0  0  0  0  0  0  0  0  0  0
    8.8083   40.1915   34.2078 O   0  0  0  0  0  0  0  0  0  0  0  0
   11.2374   40.7905   33.3654 O   0  0  0  0  0  0  0  0  0  0  0  0
   10.9138   40.6843   31.9928 C   0  0  0  0  0  0  0  0  0  0  0  0
   11.5176   39.3772   31.4393 C   0  0  0  0  0  0  0  0  0  0  0  0
   12.7478   39.0868   32.0755 O   0  0  0  0  0  0  0  0  0  0  0  0
   10.6069   38.1851   31.6656 C   0  0  0  0  0  0  0  0  0  0  0  0
   12.9372   37.6810   32.0290 C   0  0  0  0  0  0  0  0  0  0  0  0
    9.6404   38.0883   30.6475 O   0  0  0  0  0  0  0  0  0  0  0  0
   11.5789   37.0134   31.7045 C   0  0  0  0  0  0  0  0  0  0  0  0
   13.4915   37.2182   33.3239 N   0  0  0  0  0  0  0  0  0  0  0  0
   11.6125   36.3388   30.4673 O   0  0  0  0  0  0  0  0  0  0  0  0
   14.4766   36.3272   33.5730 C   0  0  0  0  0  0  0  0  0  0  0  0
   13.1184   37.6317   34.5690 C   0  0  0  0  0  0  0  0  0  0  0  0
   15.2066   35.6139   32.6740 N   0  0  0  0  0  0  0  0  0  0  0  0
   14.6735   36.2273   34.9184 C   0  0  0  0  0  0  0  0  0  0  0  0
   13.8227   37.0455   35.5785 N   0  0  0  0  0  0  0  0  0  0  0  0
   16.1638   34.7593   33.1548 C   0  0  0  0  0  0  0  0  0  0  0  0
   15.6517   35.3490   35.4132 C   0  0  0  0  0  0  0  0  0  0  0  0
   16.3792   34.6308   34.5043 N   0  0  0  0  0  0  0  0  0  0  0  0
   15.9003   35.1932   36.8090 N   0  0  0  0  0  0  0  0  0  0  0  0
    9.7667   45.0024   32.1609 H   0  0  0  0  0  0  0  0  0  0  0  0
   11.8932   45.6818   32.9202 H   0  0  0  0  0  0  0  0  0  0  0  0
   10.8411   46.9579   33.0565 H   0  0  0  0  0  0  0  0  0  0  0  0
    7.8689   44.8922   33.8922 H   0  0  0  0  0  0  0  0  0  0  0  0
    8.8840   45.8633   35.0113 H   0  0  0  0  0  0  0  0  0  0  0  0
    7.9556   48.6242   31.1266 H   0  0  0  0  0  0  0  0  0  0  0  0
    6.3130   48.4229   31.8677 H   0  0  0  0  0  0  0  0  0  0  0  0
    5.9171   45.5432   30.6320 H   0  0  0  0  0  0  0  0  0  0  0  0
    6.0370   48.5958   26.7285 H   0  0  0  0  0  0  0  0  0  0  0  0
    5.0463   44.8111   28.4597 H   0  0  0  0  0  0  0  0  0  0  0  0
    5.1297   46.3213   26.5027 H   0  0  0  0  0  0  0  0  0  0  0  0
    9.8236   40.7189   31.7568 H   0  0  0  0  0  0  0  0  0  0  0  0
   11.3853   41.5413   31.4660 H   0  0  0  0  0  0  0  0  0  0  0  0
   11.7008   39.5016   30.3469 H   0  0  0  0  0  0  0  0  0  0  0  0
   10.1098   38.2752   32.6605 H   0  0  0  0  0  0  0  0  0  0  0  0
   13.6713   37.4590   31.2227 H   0  0  0  0  0  0  0  0  0  0  0  0
    9.0032   37.3836   30.9351 H   0  0  0  0  0  0  0  0  0  0  0  0
   11.2705   36.3048   32.5088 H   0  0  0  0  0  0  0  0  0  0  0  0
   12.1443   35.5136   30.6141 H   0  0  0  0  0  0  0  0  0  0  0  0
   12.3362   38.3592   34.7444 H   0  0  0  0  0  0  0  0  0  0  0  0
   16.7571   34.1786   32.4620 H   0  0  0  0  0  0  0  0  0  0  0  0
   15.3531   35.7355   37.5139 H   0  0  0  0  0  0  0  0  0  0  0  0
   16.6362   34.5314   37.1416 H   0  0  0  0  0  0  0  0  0  0  0  0
  1  2  2  0
  1  3  1  0
  3  4  1  0
  4  5  1  0
  6  1  1  0
  7  6  1  0
  6  8  1  0
  8  9  1  0
  9 10  1  0
  9 11  2  0
 10 12  1  0
 12 13  1  0
 13 14  2  0
 15 13  1  0
 14 16  1  0
 14 17  1  0
 18 15  2  0
 16 19  1  0
 16 20  2  0
 17 21  2  0
 21 18  1  0
  4 22  2  0
  4 23  1  0
 24 23  1  0
 24 25  1  0
 25 26  1  0
 25 27  1  0
 26 28  1  0
 27 29  1  0
 27 30  1  0
 30 28  1  0
 28 31  1  0
 30 32  1  0
 33 31  1  0
 34 31  1  0
 35 33  2  0
 33 36  1  0
 37 34  2  0
 38 35  1  0
 36 39  2  0
 36 37  1  0
 40 38  2  0
 40 39  1  0
 39 41  1  0
  6 42  1  6
  7 43  1  0
  7 44  1  0
  8 45  1  0
  8 46  1  0
 12 47  1  0
 12 48  1  0
 15 49  1  0
 17 50  1  0
 18 51  1  0
 21 52  1  0
 24 53  1  0
 24 54  1  0
 25 55  1  0
 27 56  1  0
 28 57  1  0
 29 58  1  0
 30 59  1  0
 32 60  1  0
 34 61  1  0
 38 62  1  0
 41 63  1  0
 41 64  1  0
M  CHG  3   5  -1  16   1  19  -1
M  END
>  <EmbedRMS>  (72) 
0.08889294806201388

$$$$

     RDKit          3D

 64 67  0  0  0  0  0  0  0  0999 V2000
   10.2860   43.7720   33.8047 C   0  0  0  0  0  0  0  0  0  0  0  0
   11.4085   43.5885   34.3611 O   0  0  0  0  0  0  0  0  0  0  0  0
    9.3675   42.7309   33.6994 O   0  0  0  0  0  0  0  0  0  0  0  0
    9.8854   41.2342   34.2843 P   0  0  0  0  0  5  0  0  0  0  0  0
   10.3651   41.4701   35.8750 O   0  0  0  0  0  1  0  0  0  0  0  0
    9.9530   45.1147   33.2532 C   0  0  2  0  0  0  0  0  0  0  0  0
   11.0713   46.0332   33.4767 N   0  0  0  0  0  0  0  0  0  0  0  0
    8.6598   45.6654   33.8881 C   0  0  0  0  0  0  0  0  0  0  0  0
    8.7884   45.8536   35.3707 C   0  0  0  0  0  0  0  0  0  0  0  0
    9.4409   46.9859   35.8651 O   0  0  0  0  0  0  0  0  0  0  0  0
    8.3403   44.9743   36.1565 O   0  0  0  0  0  0  0  0  0  0  0  0
    9.6375   47.2157   37.2579 C   0  0  0  0  0  0  0  0  0  0  0  0
   10.3825   48.5103   37.4950 C   0  0  0  0  0  0  0  0  0  0  0  0
   11.1696   48.7105   38.6617 C   0  0  0  0  0  0  0  0  0  0  0  0
   10.2758   49.5566   36.5564 C   0  0  0  0  0  0  0  0  0  0  0  0
   11.2430   47.7257   39.7077 N   0  0  0  0  0  4  0  0  0  0  0  0
   11.8911   49.9085   38.8068 C   0  0  0  0  0  0  0  0  0  0  0  0
   10.9849   50.7457   36.7303 C   0  0  0  0  0  0  0  0  0  0  0  0
   12.3886   47.6084   40.4610 O   0  0  0  0  0  1  0  0  0  0  0  0
   10.2195   47.1108   40.0718 O   0  0  0  0  0  0  0  0  0  0  0  0
   11.8001   50.9166   37.8469 C   0  0  0  0  0  0  0  0  0  0  0  0
    8.8081   40.1911   34.2081 O   0  0  0  0  0  0  0  0  0  0  0  0
   11.2382   40.7905   33.3697 O   0  0  0  0  0  0  0  0  0  0  0  0
   10.9190   40.6905   31.9962 C   0  0  0  0  0  0  0  0  0  0  0  0
   11.5176   39.3824   31.4412 C   0  0  0  0  0  0  0  0  0  0  0  0
   12.7495   39.0892   32.0755 O   0  0  0  0  0  0  0  0  0  0  0  0
   10.6036   38.1899   31.6660 C   0  0  0  0  0  0  0  0  0  0  0  0
   12.9401   37.6833   32.0276 C   0  0  0  0  0  0  0  0  0  0  0  0
    9.6376   38.0785   30.6474 O   0  0  0  0  0  0  0  0  0  0  0  0
   11.5803   37.0203   31.6937 C   0  0  0  0  0  0  0  0  0  0  0  0
   13.4902   37.2177   33.3237 N   0  0  0  0  0  0  0  0  0  0  0  0
   11.6117   36.3193   30.4680 O   0  0  0  0  0  0  0  0  0  0  0  0
   14.4759   36.3271   33.5731 C   0  0  0  0  0  0  0  0  0  0  0  0
   13.1176   37.6317   34.5688 C   0  0  0  0  0  0  0  0  0  0  0  0
   15.2064   35.6141   32.6742 N   0  0  0  0  0  0  0  0  0  0  0  0
   14.6729   36.2274   34.9184 C   0  0  0  0  0  0  0  0  0  0  0  0
   13.8221   37.0457   35.5783 N   0  0  0  0  0  0  0  0  0  0  0  0
   16.1637   34.7597   33.1549 C   0  0  0  0  0  0  0  0  0  0  0  0
   15.6514   35.3493   35.4133 C   0  0  0  0  0  0  0  0  0  0  0  0
   16.3791   34.6312   34.5044 N   0  0  0  0  0  0  0  0  0  0  0  0
   15.9001   35.1935   36.8091 N   0  0  0  0  0  0  0  0  0  0  0  0
    9.7839   45.0053   32.1582 H   0  0  0  0  0  0  0  0  0  0  0  0
   10.8099   46.9723   33.0969 H   0  0  0  0  0  0  0  0  0  0  0  0
   11.8825   45.7133   32.8976 H   0  0  0  0  0  0  0  0  0  0  0  0
    7.8124   44.9788   33.6701 H   0  0  0  0  0  0  0  0  0  0  0  0
    8.4088   46.6436   33.4242 H   0  0  0  0  0  0  0  0  0  0  0  0
   10.2202   46.3623   37.6666 H   0  0  0  0  0  0  0  0  0  0  0  0
    8.6522   47.2675   37.7691 H   0  0  0  0  0  0  0  0  0  0  0  0
    9.6505   49.4534   35.6786 H   0  0  0  0  0  0  0  0  0  0  0  0
   12.5061   50.0744   39.6822 H   0  0  0  0  0  0  0  0  0  0  0  0
   10.9038   51.5360   35.9951 H   0  0  0  0  0  0  0  0  0  0  0  0
   12.3514   51.8389   37.9773 H   0  0  0  0  0  0  0  0  0  0  0  0
   11.4000   41.5454   31.4747 H   0  0  0  0  0  0  0  0  0  0  0  0
    9.8311   40.7397   31.7560 H   0  0  0  0  0  0  0  0  0  0  0  0
   11.6989   39.5091   30.3489 H   0  0  0  0  0  0  0  0  0  0  0  0
   10.1130   38.2589   32.6664 H   0  0  0  0  0  0  0  0  0  0  0  0
   13.6800   37.4627   31.2265 H   0  0  0  0  0  0  0  0  0  0  0  0
    8.8953   38.6909   30.8891 H   0  0  0  0  0  0  0  0  0  0  0  0
   11.2830   36.3060   32.4929 H   0  0  0  0  0  0  0  0  0  0  0  0
   11.8859   36.9589   29.7593 H   0  0  0  0  0  0  0  0  0  0  0  0
   12.3360   38.3600   34.7441 H   0  0  0  0  0  0  0  0  0  0  0  0
   16.7573   34.1793   32.4621 H   0  0  0  0  0  0  0  0  0  0  0  0
   15.3528   35.7357   37.5140 H   0  0  0  0  0  0  0  0  0  0  0  0
   16.6362   34.5318   37.1416 H   0  0  0  0  0  0  0  0  0  0  0  0
  1  2  2  0
  1  3  1  0
  3  4  1  0
  4  5  1  0
  6  1  1  0
  7  6  1  0
  6  8  1  0
  8  9  1  0
  9 10  1  0
  9 11  2  0
 10 12  1  0
 12 13  1  0
 13 14  2  0
 15 13  1  0
 14 16  1  0
 14 17  1  0
 18 15  2  0
 16 19  1  0
 16 20  2  0
 17 21  2  0
 21 18  1  0
  4 22  2  0
  4 23  1  0
 24 23  1  0
 24 25  1  0
 25 26  1  0
 25 27  1  0
 26 28  1  0
 27 29  1  0
 27 30  1  0
 30 28  1  0
 28 31  1  0
 30 32  1  0
 33 31  1  0
 34 31  1  0
 35 33  2  0
 33 36  1  0
 37 34  2  0
 38 35  1  0
 36 39  2  0
 36 37  1  0
 40 38  2  0
 40 39  1  0
 39 41  1  0
  6 42  1  6
  7 43  1  0
  7 44  1  0
  8 45  1  0
  8 46  1  0
 12 47  1  0
 12 48  1  0
 15 49  1  0
 17 50  1  0
 18 51  1  0
 21 52  1  0
 24 53  1  0
 24 54  1  0
 25 55  1  0
 27 56  1  0
 28 57  1  0
 29 58  1  0
 30 59  1  0
 32 60  1  0
 34 61  1  0
 38 62  1  0
 41 63  1  0
 41 64  1  0
M  CHG  3   5  -1  16   1  19  -1
M  END
>  <EmbedRMS>  (73) 
0.08832637777069133

$$$$

     RDKit          3D

 64 67  0  0  0  0  0  0  0  0999 V2000
   10.2872   43.7704   33.8004 C   0  0  0  0  0  0  0  0  0  0  0  0
   11.4099   43.5855   34.3556 O   0  0  0  0  0  0  0  0  0  0  0  0
    9.3669   42.7308   33.6983 O   0  0  0  0  0  0  0  0  0  0  0  0
    9.8848   41.2347   34.2850 P   0  0  0  0  0  5  0  0  0  0  0  0
   10.3652   41.4719   35.8752 O   0  0  0  0  0  1  0  0  0  0  0  0
    9.9527   45.1160   33.2547 C   0  0  2  0  0  0  0  0  0  0  0  0
   11.0702   46.0336   33.4817 N   0  0  0  0  0  0  0  0  0  0  0  0
    8.6591   45.6658   33.8919 C   0  0  0  0  0  0  0  0  0  0  0  0
    8.7285   45.6978   35.3906 C   0  0  0  0  0  0  0  0  0  0  0  0
    9.5629   46.6232   36.0276 O   0  0  0  0  0  0  0  0  0  0  0  0
    8.0617   44.8642   36.0630 O   0  0  0  0  0  0  0  0  0  0  0  0
    9.8101   46.6028   37.4321 C   0  0  0  0  0  0  0  0  0  0  0  0
   10.6479   45.3992   37.8033 C   0  0  0  0  0  0  0  0  0  0  0  0
   11.9434   45.1693   37.2572 C   0  0  0  0  0  0  0  0  0  0  0  0
   10.0870   44.4383   38.6656 C   0  0  0  0  0  0  0  0  0  0  0  0
   12.5853   46.1036   36.3660 N   0  0  0  0  0  4  0  0  0  0  0  0
   12.6154   43.9753   37.5793 C   0  0  0  0  0  0  0  0  0  0  0  0
   10.7792   43.2690   38.9793 C   0  0  0  0  0  0  0  0  0  0  0  0
   13.5515   45.6640   35.4900 O   0  0  0  0  0  1  0  0  0  0  0  0
   12.3982   47.3320   36.4757 O   0  0  0  0  0  0  0  0  0  0  0  0
   12.0389   43.0364   38.4345 C   0  0  0  0  0  0  0  0  0  0  0  0
    8.8076   40.1915   34.2097 O   0  0  0  0  0  0  0  0  0  0  0  0
   11.2366   40.7901   33.3698 O   0  0  0  0  0  0  0  0  0  0  0  0
   10.9155   40.6898   31.9966 C   0  0  0  0  0  0  0  0  0  0  0  0
   11.5269   39.3900   31.4377 C   0  0  0  0  0  0  0  0  0  0  0  0
   12.7508   39.0917   32.0840 O   0  0  0  0  0  0  0  0  0  0  0  0
   10.6122   38.1917   31.6453 C   0  0  0  0  0  0  0  0  0  0  0  0
   12.9429   37.6854   32.0296 C   0  0  0  0  0  0  0  0  0  0  0  0
    9.6070   38.0859   30.6603 O   0  0  0  0  0  0  0  0  0  0  0  0
   11.5845   37.0187   31.6880 C   0  0  0  0  0  0  0  0  0  0  0  0
   13.4899   37.2164   33.3251 N   0  0  0  0  0  0  0  0  0  0  0  0
   11.6201   36.3063   30.4693 O   0  0  0  0  0  0  0  0  0  0  0  0
   14.4758   36.3264   33.5739 C   0  0  0  0  0  0  0  0  0  0  0  0
   13.1176   37.6309   34.5700 C   0  0  0  0  0  0  0  0  0  0  0  0
   15.2065   35.6139   32.6746 N   0  0  0  0  0  0  0  0  0  0  0  0
   14.6731   36.2268   34.9191 C   0  0  0  0  0  0  0  0  0  0  0  0
   13.8225   37.0451   35.5793 N   0  0  0  0  0  0  0  0  0  0  0  0
   16.1640   34.7596   33.1551 C   0  0  0  0  0  0  0  0  0  0  0  0
   15.6517   35.3489   35.4136 C   0  0  0  0  0  0  0  0  0  0  0  0
   16.3795   34.6310   34.5046 N   0  0  0  0  0  0  0  0  0  0  0  0
   15.9006   35.1931   36.8094 N   0  0  0  0  0  0  0  0  0  0  0  0
    9.7845   45.0132   32.1590 H   0  0  0  0  0  0  0  0  0  0  0  0
   10.8131   46.9724   33.0987 H   0  0  0  0  0  0  0  0  0  0  0  0
   11.8844   45.7117   32.9082 H   0  0  0  0  0  0  0  0  0  0  0  0
    8.4635   46.6939   33.5188 H   0  0  0  0  0  0  0  0  0  0  0  0
    7.7980   45.0377   33.5733 H   0  0  0  0  0  0  0  0  0  0  0  0
    8.8390   46.6110   37.9745 H   0  0  0  0  0  0  0  0  0  0  0  0
   10.3311   47.5336   37.7331 H   0  0  0  0  0  0  0  0  0  0  0  0
    9.1003   44.5853   39.0873 H   0  0  0  0  0  0  0  0  0  0  0  0
   13.5988   43.7726   37.1749 H   0  0  0  0  0  0  0  0  0  0  0  0
   10.3329   42.5370   39.6400 H   0  0  0  0  0  0  0  0  0  0  0  0
   12.5713   42.1251   38.6747 H   0  0  0  0  0  0  0  0  0  0  0  0
   11.3826   41.5528   31.4756 H   0  0  0  0  0  0  0  0  0  0  0  0
    9.8254   40.7192   31.7593 H   0  0  0  0  0  0  0  0  0  0  0  0
   11.7317   39.5342   30.3523 H   0  0  0  0  0  0  0  0  0  0  0  0
   10.1214   38.2682   32.6414 H   0  0  0  0  0  0  0  0  0  0  0  0
   13.6882   37.4709   31.2320 H   0  0  0  0  0  0  0  0  0  0  0  0
   10.0257   38.1754   29.7657 H   0  0  0  0  0  0  0  0  0  0  0  0
   11.2796   36.3124   32.4916 H   0  0  0  0  0  0  0  0  0  0  0  0
   11.9872   36.9100   29.7715 H   0  0  0  0  0  0  0  0  0  0  0  0
   12.3367   38.3599   34.7454 H   0  0  0  0  0  0  0  0  0  0  0  0
   16.7576   34.1795   32.4622 H   0  0  0  0  0  0  0  0  0  0  0  0
   16.6368   34.5316   37.1418 H   0  0  0  0  0  0  0  0  0  0  0  0
   15.3532   35.7352   37.5144 H   0  0  0  0  0  0  0  0  0  0  0  0
  1  2  2  0
  1  3  1  0
  3  4  1  0
  4  5  1  0
  6  1  1  0
  7  6  1  0
  6  8  1  0
  8  9  1  0
  9 10  1  0
  9 11  2  0
 10 12  1  0
 12 13  1  0
 13 14  2  0
 15 13  1  0
 14 16  1  0
 14 17  1  0
 18 15  2  0
 16 19  1  0
 16 20  2  0
 17 21  2  0
 21 18  1  0
  4 22  2  0
  4 23  1  0
 24 23  1  0
 24 25  1  0
 25 26  1  0
 25 27  1  0
 26 28  1  0
 27 29  1  0
 27 30  1  0
 30 28  1  0
 28 31  1  0
 30 32  1  0
 33 31  1  0
 34 31  1  0
 35 33  2  0
 33 36  1  0
 37 34  2  0
 38 35  1  0
 36 39  2  0
 36 37  1  0
 40 38  2  0
 40 39  1  0
 39 41  1  0
  6 42  1  6
  7 43  1  0
  7 44  1  0
  8 45  1  0
  8 46  1  0
 12 47  1  0
 12 48  1  0
 15 49  1  0
 17 50  1  0
 18 51  1  0
 21 52  1  0
 24 53  1  0
 24 54  1  0
 25 55  1  0
 27 56  1  0
 28 57  1  0
 29 58  1  0
 30 59  1  0
 32 60  1  0
 34 61  1  0
 38 62  1  0
 41 63  1  0
 41 64  1  0
M  CHG  3   5  -1  16   1  19  -1
M  END
>  <EmbedRMS>  (74) 
0.08684406384808158

$$$$

     RDKit          3D

 64 67  0  0  0  0  0  0  0  0999 V2000
   10.2880   43.7705   33.7995 C   0  0  0  0  0  0  0  0  0  0  0  0
   11.4093   43.5874   34.3584 O   0  0  0  0  0  0  0  0  0  0  0  0
    9.3676   42.7306   33.6983 O   0  0  0  0  0  0  0  0  0  0  0  0
    9.8849   41.2343   34.2849 P   0  0  0  0  0  5  0  0  0  0  0  0
   10.3687   41.4703   35.8738 O   0  0  0  0  0  1  0  0  0  0  0  0
    9.9560   45.1139   33.2466 C   0  0  2  0  0  0  0  0  0  0  0  0
   11.0668   46.0366   33.4872 N   0  0  0  0  0  0  0  0  0  0  0  0
    8.6501   45.6609   33.8597 C   0  0  0  0  0  0  0  0  0  0  0  0
    8.7364   45.8153   35.3496 C   0  0  0  0  0  0  0  0  0  0  0  0
    8.6769   44.6760   36.1558 O   0  0  0  0  0  0  0  0  0  0  0  0
    8.8829   46.9598   35.8589 O   0  0  0  0  0  0  0  0  0  0  0  0
    8.7106   44.7241   37.5775 C   0  0  0  0  0  0  0  0  0  0  0  0
    8.7025   43.3198   38.1287 C   0  0  0  0  0  0  0  0  0  0  0  0
    7.7323   42.3584   37.7345 C   0  0  0  0  0  0  0  0  0  0  0  0
    9.7190   42.9409   39.0254 C   0  0  0  0  0  0  0  0  0  0  0  0
    6.6585   42.6874   36.8342 N   0  0  0  0  0  4  0  0  0  0  0  0
    7.8357   41.0423   38.2213 C   0  0  0  0  0  0  0  0  0  0  0  0
    9.7929   41.6338   39.5082 C   0  0  0  0  0  0  0  0  0  0  0  0
    6.0044   43.8934   36.9326 O   0  0  0  0  0  1  0  0  0  0  0  0
    6.2051   41.8208   36.0575 O   0  0  0  0  0  0  0  0  0  0  0  0
    8.8568   40.6852   39.1026 C   0  0  0  0  0  0  0  0  0  0  0  0
    8.8068   40.1919   34.2112 O   0  0  0  0  0  0  0  0  0  0  0  0
   11.2360   40.7888   33.3687 O   0  0  0  0  0  0  0  0  0  0  0  0
   10.9146   40.6879   31.9956 C   0  0  0  0  0  0  0  0  0  0  0  0
   11.5257   39.3872   31.4368 C   0  0  0  0  0  0  0  0  0  0  0  0
   12.7489   39.0894   32.0820 O   0  0  0  0  0  0  0  0  0  0  0  0
   10.6122   38.1892   31.6461 C   0  0  0  0  0  0  0  0  0  0  0  0
   12.9372   37.6828   32.0301 C   0  0  0  0  0  0  0  0  0  0  0  0
    9.6151   38.0838   30.6537 O   0  0  0  0  0  0  0  0  0  0  0  0
   11.5793   37.0137   31.7013 C   0  0  0  0  0  0  0  0  0  0  0  0
   13.4906   37.2170   33.3242 N   0  0  0  0  0  0  0  0  0  0  0  0
   11.6217   36.3253   30.4724 O   0  0  0  0  0  0  0  0  0  0  0  0
   14.4763   36.3267   33.5731 C   0  0  0  0  0  0  0  0  0  0  0  0
   13.1179   37.6307   34.5694 C   0  0  0  0  0  0  0  0  0  0  0  0
   15.2066   35.6137   32.6740 N   0  0  0  0  0  0  0  0  0  0  0  0
   14.6734   36.2269   34.9185 C   0  0  0  0  0  0  0  0  0  0  0  0
   13.8226   37.0448   35.5788 N   0  0  0  0  0  0  0  0  0  0  0  0
   16.1639   34.7593   33.1548 C   0  0  0  0  0  0  0  0  0  0  0  0
   15.6518   35.3491   35.4132 C   0  0  0  0  0  0  0  0  0  0  0  0
   16.3795   34.6309   34.5043 N   0  0  0  0  0  0  0  0  0  0  0  0
   15.9006   35.1933   36.8090 N   0  0  0  0  0  0  0  0  0  0  0  0
    9.8043   45.0052   32.1490 H   0  0  0  0  0  0  0  0  0  0  0  0
   10.8067   46.9747   33.1044 H   0  0  0  0  0  0  0  0  0  0  0  0
   11.8873   45.7213   32.9188 H   0  0  0  0  0  0  0  0  0  0  0  0
    7.8098   44.9734   33.6208 H   0  0  0  0  0  0  0  0  0  0  0  0
    8.4056   46.6415   33.3957 H   0  0  0  0  0  0  0  0  0  0  0  0
    7.8337   45.2846   37.9640 H   0  0  0  0  0  0  0  0  0  0  0  0
    9.6253   45.2701   37.8973 H   0  0  0  0  0  0  0  0  0  0  0  0
   10.4687   43.6551   39.3433 H   0  0  0  0  0  0  0  0  0  0  0  0
    7.1132   40.2916   37.9271 H   0  0  0  0  0  0  0  0  0  0  0  0
   10.5836   41.3541   40.1927 H   0  0  0  0  0  0  0  0  0  0  0  0
    8.9201   39.6706   39.4742 H   0  0  0  0  0  0  0  0  0  0  0  0
    9.8244   40.7174   31.7590 H   0  0  0  0  0  0  0  0  0  0  0  0
   11.3817   41.5504   31.4739 H   0  0  0  0  0  0  0  0  0  0  0  0
   11.7285   39.5293   30.3507 H   0  0  0  0  0  0  0  0  0  0  0  0
   10.1137   38.2716   32.6379 H   0  0  0  0  0  0  0  0  0  0  0  0
   13.6723   37.4639   31.2238 H   0  0  0  0  0  0  0  0  0  0  0  0
   10.0538   38.1084   29.7639 H   0  0  0  0  0  0  0  0  0  0  0  0
   11.2646   36.3135   32.5106 H   0  0  0  0  0  0  0  0  0  0  0  0
   12.1551   35.5033   30.6312 H   0  0  0  0  0  0  0  0  0  0  0  0
   12.3361   38.3586   34.7452 H   0  0  0  0  0  0  0  0  0  0  0  0
   16.7571   34.1785   32.4620 H   0  0  0  0  0  0  0  0  0  0  0  0
   15.3532   35.7353   37.5141 H   0  0  0  0  0  0  0  0  0  0  0  0
   16.6365   34.5314   37.1413 H   0  0  0  0  0  0  0  0  0  0  0  0
  1  2  2  0
  1  3  1  0
  3  4  1  0
  4  5  1  0
  6  1  1  0
  7  6  1  0
  6  8  1  0
  8  9  1  0
  9 10  1  0
  9 11  2  0
 10 12  1  0
 12 13  1  0
 13 14  2  0
 15 13  1  0
 14 16  1  0
 14 17  1  0
 18 15  2  0
 16 19  1  0
 16 20  2  0
 17 21  2  0
 21 18  1  0
  4 22  2  0
  4 23  1  0
 24 23  1  0
 24 25  1  0
 25 26  1  0
 25 27  1  0
 26 28  1  0
 27 29  1  0
 27 30  1  0
 30 28  1  0
 28 31  1  0
 30 32  1  0
 33 31  1  0
 34 31  1  0
 35 33  2  0
 33 36  1  0
 37 34  2  0
 38 35  1  0
 36 39  2  0
 36 37  1  0
 40 38  2  0
 40 39  1  0
 39 41  1  0
  6 42  1  6
  7 43  1  0
  7 44  1  0
  8 45  1  0
  8 46  1  0
 12 47  1  0
 12 48  1  0
 15 49  1  0
 17 50  1  0
 18 51  1  0
 21 52  1  0
 24 53  1  0
 24 54  1  0
 25 55  1  0
 27 56  1  0
 28 57  1  0
 29 58  1  0
 30 59  1  0
 32 60  1  0
 34 61  1  0
 38 62  1  0
 41 63  1  0
 41 64  1  0
M  CHG  3   5  -1  16   1  19  -1
M  END
>  <EmbedRMS>  (75) 
0.08782824621072896

$$$$

     RDKit          3D

 64 67  0  0  0  0  0  0  0  0999 V2000
   10.2864   43.7709   33.8097 C   0  0  0  0  0  0  0  0  0  0  0  0
   11.4101   43.5818   34.3616 O   0  0  0  0  0  0  0  0  0  0  0  0
    9.3672   42.7306   33.7015 O   0  0  0  0  0  0  0  0  0  0  0  0
    9.8851   41.2327   34.2837 P   0  0  0  0  0  5  0  0  0  0  0  0
   10.3652   41.4675   35.8745 O   0  0  0  0  0  1  0  0  0  0  0  0
    9.9606   45.1124   33.2474 C   0  0  2  0  0  0  0  0  0  0  0  0
   11.0655   46.0480   33.4748 N   0  0  0  0  0  0  0  0  0  0  0  0
    8.6651   45.6564   33.8722 C   0  0  0  0  0  0  0  0  0  0  0  0
    8.2769   46.9645   33.2566 C   0  0  0  0  0  0  0  0  0  0  0  0
    8.7212   48.1566   33.8388 O   0  0  0  0  0  0  0  0  0  0  0  0
    7.5867   46.9799   32.2008 O   0  0  0  0  0  0  0  0  0  0  0  0
    8.3799   49.4469   33.3355 C   0  0  0  0  0  0  0  0  0  0  0  0
    6.9124   49.7384   33.5514 C   0  0  0  0  0  0  0  0  0  0  0  0
    6.2948   49.6138   34.8252 C   0  0  0  0  0  0  0  0  0  0  0  0
    6.1296   50.1077   32.4419 C   0  0  0  0  0  0  0  0  0  0  0  0
    7.0443   49.2592   36.0018 N   0  0  0  0  0  4  0  0  0  0  0  0
    4.9087   49.8292   34.9375 C   0  0  0  0  0  0  0  0  0  0  0  0
    4.7593   50.3318   32.5793 C   0  0  0  0  0  0  0  0  0  0  0  0
    8.2974   49.7820   36.2206 O   0  0  0  0  0  1  0  0  0  0  0  0
    6.5022   48.6010   36.9138 O   0  0  0  0  0  0  0  0  0  0  0  0
    4.1492   50.1879   33.8234 C   0  0  0  0  0  0  0  0  0  0  0  0
    8.8075   40.1901   34.2071 O   0  0  0  0  0  0  0  0  0  0  0  0
   11.2381   40.7896   33.3686 O   0  0  0  0  0  0  0  0  0  0  0  0
   10.9194   40.6894   31.9948 C   0  0  0  0  0  0  0  0  0  0  0  0
   11.5171   39.3800   31.4396 C   0  0  0  0  0  0  0  0  0  0  0  0
   12.7479   39.0861   32.0733 O   0  0  0  0  0  0  0  0  0  0  0  0
   10.6031   38.1891   31.6666 C   0  0  0  0  0  0  0  0  0  0  0  0
   12.9335   37.6796   32.0279 C   0  0  0  0  0  0  0  0  0  0  0  0
    9.6396   38.0776   30.6456 O   0  0  0  0  0  0  0  0  0  0  0  0
   11.5739   37.0154   31.7057 C   0  0  0  0  0  0  0  0  0  0  0  0
   13.4903   37.2178   33.3231 N   0  0  0  0  0  0  0  0  0  0  0  0
   11.6211   36.3376   30.4695 O   0  0  0  0  0  0  0  0  0  0  0  0
   14.4761   36.3273   33.5725 C   0  0  0  0  0  0  0  0  0  0  0  0
   13.1179   37.6316   34.5684 C   0  0  0  0  0  0  0  0  0  0  0  0
   15.2063   35.6139   32.6737 N   0  0  0  0  0  0  0  0  0  0  0  0
   14.6733   36.2277   34.9179 C   0  0  0  0  0  0  0  0  0  0  0  0
   13.8225   37.0459   35.5779 N   0  0  0  0  0  0  0  0  0  0  0  0
   16.1636   34.7594   33.1546 C   0  0  0  0  0  0  0  0  0  0  0  0
   15.6515   35.3494   35.4129 C   0  0  0  0  0  0  0  0  0  0  0  0
   16.3791   34.6311   34.5041 N   0  0  0  0  0  0  0  0  0  0  0  0
   15.9001   35.1935   36.8088 N   0  0  0  0  0  0  0  0  0  0  0  0
    9.8093   44.9956   32.1512 H   0  0  0  0  0  0  0  0  0  0  0  0
   11.2747   46.1191   34.4982 H   0  0  0  0  0  0  0  0  0  0  0  0
   11.9221   45.7018   32.9832 H   0  0  0  0  0  0  0  0  0  0  0  0
    7.8358   44.9310   33.7194 H   0  0  0  0  0  0  0  0  0  0  0  0
    8.7975   45.7927   34.9680 H   0  0  0  0  0  0  0  0  0  0  0  0
    8.9870   50.2162   33.8547 H   0  0  0  0  0  0  0  0  0  0  0  0
    8.6558   49.5019   32.2594 H   0  0  0  0  0  0  0  0  0  0  0  0
    6.5778   50.2118   31.4615 H   0  0  0  0  0  0  0  0  0  0  0  0
    4.4162   49.7347   35.8971 H   0  0  0  0  0  0  0  0  0  0  0  0
    4.1680   50.6113   31.7168 H   0  0  0  0  0  0  0  0  0  0  0  0
    3.0852   50.3583   33.9263 H   0  0  0  0  0  0  0  0  0  0  0  0
   11.4014   41.5436   31.4731 H   0  0  0  0  0  0  0  0  0  0  0  0
    9.8317   40.7398   31.7544 H   0  0  0  0  0  0  0  0  0  0  0  0
   11.6982   39.5042   30.3469 H   0  0  0  0  0  0  0  0  0  0  0  0
   10.1090   38.2631   32.6649 H   0  0  0  0  0  0  0  0  0  0  0  0
   13.6656   37.4540   31.2207 H   0  0  0  0  0  0  0  0  0  0  0  0
    8.8965   38.6899   30.8852 H   0  0  0  0  0  0  0  0  0  0  0  0
   11.2846   36.3060   32.5175 H   0  0  0  0  0  0  0  0  0  0  0  0
   10.8524   35.7094   30.4590 H   0  0  0  0  0  0  0  0  0  0  0  0
   12.3353   38.3587   34.7439 H   0  0  0  0  0  0  0  0  0  0  0  0
   16.7570   34.1788   32.4619 H   0  0  0  0  0  0  0  0  0  0  0  0
   15.3529   35.7359   37.5136 H   0  0  0  0  0  0  0  0  0  0  0  0
   16.6360   34.5317   37.1413 H   0  0  0  0  0  0  0  0  0  0  0  0
  1  2  2  0
  1  3  1  0
  3  4  1  0
  4  5  1  0
  6  1  1  0
  7  6  1  0
  6  8  1  0
  8  9  1  0
  9 10  1  0
  9 11  2  0
 10 12  1  0
 12 13  1  0
 13 14  2  0
 15 13  1  0
 14 16  1  0
 14 17  1  0
 18 15  2  0
 16 19  1  0
 16 20  2  0
 17 21  2  0
 21 18  1  0
  4 22  2  0
  4 23  1  0
 24 23  1  0
 24 25  1  0
 25 26  1  0
 25 27  1  0
 26 28  1  0
 27 29  1  0
 27 30  1  0
 30 28  1  0
 28 31  1  0
 30 32  1  0
 33 31  1  0
 34 31  1  0
 35 33  2  0
 33 36  1  0
 37 34  2  0
 38 35  1  0
 36 39  2  0
 36 37  1  0
 40 38  2  0
 40 39  1  0
 39 41  1  0
  6 42  1  6
  7 43  1  0
  7 44  1  0
  8 45  1  0
  8 46  1  0
 12 47  1  0
 12 48  1  0
 15 49  1  0
 17 50  1  0
 18 51  1  0
 21 52  1  0
 24 53  1  0
 24 54  1  0
 25 55  1  0
 27 56  1  0
 28 57  1  0
 29 58  1  0
 30 59  1  0
 32 60  1  0
 34 61  1  0
 38 62  1  0
 41 63  1  0
 41 64  1  0
M  CHG  3   5  -1  16   1  19  -1
M  END
>  <EmbedRMS>  (76) 
0.08996364917835477

$$$$

     RDKit          3D

 64 67  0  0  0  0  0  0  0  0999 V2000
   10.2848   43.7726   33.8068 C   0  0  0  0  0  0  0  0  0  0  0  0
   11.4105   43.5873   34.3561 O   0  0  0  0  0  0  0  0  0  0  0  0
    9.3661   42.7315   33.7017 O   0  0  0  0  0  0  0  0  0  0  0  0
    9.8848   41.2344   34.2849 P   0  0  0  0  0  5  0  0  0  0  0  0
   10.3658   41.4698   35.8752 O   0  0  0  0  0  1  0  0  0  0  0  0
    9.9581   45.1109   33.2442 C   0  0  2  0  0  0  0  0  0  0  0  0
   11.0677   46.0367   33.4847 N   0  0  0  0  0  0  0  0  0  0  0  0
    8.6199   45.6581   33.7908 C   0  0  0  0  0  0  0  0  0  0  0  0
    8.6089   45.7984   35.2845 C   0  0  0  0  0  0  0  0  0  0  0  0
    9.0111   47.0043   35.8648 O   0  0  0  0  0  0  0  0  0  0  0  0
    8.2657   44.8210   36.0044 O   0  0  0  0  0  0  0  0  0  0  0  0
    9.0679   47.1988   37.2756 C   0  0  0  0  0  0  0  0  0  0  0  0
    9.5412   48.5951   37.6100 C   0  0  0  0  0  0  0  0  0  0  0  0
   10.2337   48.8740   38.8181 C   0  0  0  0  0  0  0  0  0  0  0  0
    9.2669   49.6529   36.7202 C   0  0  0  0  0  0  0  0  0  0  0  0
   10.4509   47.8600   39.8150 N   0  0  0  0  0  4  0  0  0  0  0  0
   10.7049   50.1782   39.0553 C   0  0  0  0  0  0  0  0  0  0  0  0
    9.7268   50.9438   36.9838 C   0  0  0  0  0  0  0  0  0  0  0  0
    9.4445   46.9811   40.1434 O   0  0  0  0  0  1  0  0  0  0  0  0
   11.4793   47.8873   40.5223 O   0  0  0  0  0  0  0  0  0  0  0  0
   10.4546   51.2035   38.1429 C   0  0  0  0  0  0  0  0  0  0  0  0
    8.8076   40.1913   34.2091 O   0  0  0  0  0  0  0  0  0  0  0  0
   11.2366   40.7909   33.3690 O   0  0  0  0  0  0  0  0  0  0  0  0
   10.9151   40.6898   31.9960 C   0  0  0  0  0  0  0  0  0  0  0  0
   11.5268   39.3899   31.4375 C   0  0  0  0  0  0  0  0  0  0  0  0
   12.7506   39.0917   32.0840 O   0  0  0  0  0  0  0  0  0  0  0  0
   10.6121   38.1915   31.6452 C   0  0  0  0  0  0  0  0  0  0  0  0
   12.9429   37.6853   32.0295 C   0  0  0  0  0  0  0  0  0  0  0  0
    9.6069   38.0858   30.6603 O   0  0  0  0  0  0  0  0  0  0  0  0
   11.5845   37.0186   31.6880 C   0  0  0  0  0  0  0  0  0  0  0  0
   13.4899   37.2164   33.3250 N   0  0  0  0  0  0  0  0  0  0  0  0
   11.6202   36.3063   30.4693 O   0  0  0  0  0  0  0  0  0  0  0  0
   14.4759   36.3263   33.5739 C   0  0  0  0  0  0  0  0  0  0  0  0
   13.1176   37.6308   34.5699 C   0  0  0  0  0  0  0  0  0  0  0  0
   15.2065   35.6139   32.6746 N   0  0  0  0  0  0  0  0  0  0  0  0
   14.6731   36.2267   34.9191 C   0  0  0  0  0  0  0  0  0  0  0  0
   13.8224   37.0450   35.5792 N   0  0  0  0  0  0  0  0  0  0  0  0
   16.1640   34.7596   33.1551 C   0  0  0  0  0  0  0  0  0  0  0  0
   15.6517   35.3489   35.4136 C   0  0  0  0  0  0  0  0  0  0  0  0
   16.3795   34.6310   34.5046 N   0  0  0  0  0  0  0  0  0  0  0  0
   15.9006   35.1931   36.8094 N   0  0  0  0  0  0  0  0  0  0  0  0
    9.8480   44.9843   32.1448 H   0  0  0  0  0  0  0  0  0  0  0  0
   11.1647   46.2262   34.5087 H   0  0  0  0  0  0  0  0  0  0  0  0
   10.8517   46.9476   33.0180 H   0  0  0  0  0  0  0  0  0  0  0  0
    8.4146   46.6502   33.3340 H   0  0  0  0  0  0  0  0  0  0  0  0
    7.7907   44.9845   33.4819 H   0  0  0  0  0  0  0  0  0  0  0  0
    8.0582   47.0456   37.7137 H   0  0  0  0  0  0  0  0  0  0  0  0
    9.7697   46.4471   37.6961 H   0  0  0  0  0  0  0  0  0  0  0  0
    8.7038   49.4811   35.8114 H   0  0  0  0  0  0  0  0  0  0  0  0
   11.2451   50.4080   39.9652 H   0  0  0  0  0  0  0  0  0  0  0  0
    9.5202   51.7445   36.2853 H   0  0  0  0  0  0  0  0  0  0  0  0
   10.8125   52.2052   38.3433 H   0  0  0  0  0  0  0  0  0  0  0  0
   11.3818   41.5527   31.4744 H   0  0  0  0  0  0  0  0  0  0  0  0
    9.8249   40.7189   31.7591 H   0  0  0  0  0  0  0  0  0  0  0  0
   11.7317   39.5339   30.3521 H   0  0  0  0  0  0  0  0  0  0  0  0
   10.1213   38.2681   32.6413 H   0  0  0  0  0  0  0  0  0  0  0  0
   13.6882   37.4710   31.2319 H   0  0  0  0  0  0  0  0  0  0  0  0
   10.0256   38.1750   29.7656 H   0  0  0  0  0  0  0  0  0  0  0  0
   11.2796   36.3123   32.4916 H   0  0  0  0  0  0  0  0  0  0  0  0
   11.9872   36.9100   29.7715 H   0  0  0  0  0  0  0  0  0  0  0  0
   12.3365   38.3596   34.7454 H   0  0  0  0  0  0  0  0  0  0  0  0
   16.7576   34.1794   32.4622 H   0  0  0  0  0  0  0  0  0  0  0  0
   16.6368   34.5316   37.1418 H   0  0  0  0  0  0  0  0  0  0  0  0
   15.3532   35.7351   37.5143 H   0  0  0  0  0  0  0  0  0  0  0  0
  1  2  2  0
  1  3  1  0
  3  4  1  0
  4  5  1  0
  6  1  1  0
  7  6  1  0
  6  8  1  0
  8  9  1  0
  9 10  1  0
  9 11  2  0
 10 12  1  0
 12 13  1  0
 13 14  2  0
 15 13  1  0
 14 16  1  0
 14 17  1  0
 18 15  2  0
 16 19  1  0
 16 20  2  0
 17 21  2  0
 21 18  1  0
  4 22  2  0
  4 23  1  0
 24 23  1  0
 24 25  1  0
 25 26  1  0
 25 27  1  0
 26 28  1  0
 27 29  1  0
 27 30  1  0
 30 28  1  0
 28 31  1  0
 30 32  1  0
 33 31  1  0
 34 31  1  0
 35 33  2  0
 33 36  1  0
 37 34  2  0
 38 35  1  0
 36 39  2  0
 36 37  1  0
 40 38  2  0
 40 39  1  0
 39 41  1  0
  6 42  1  6
  7 43  1  0
  7 44  1  0
  8 45  1  0
  8 46  1  0
 12 47  1  0
 12 48  1  0
 15 49  1  0
 17 50  1  0
 18 51  1  0
 21 52  1  0
 24 53  1  0
 24 54  1  0
 25 55  1  0
 27 56  1  0
 28 57  1  0
 29 58  1  0
 30 59  1  0
 32 60  1  0
 34 61  1  0
 38 62  1  0
 41 63  1  0
 41 64  1  0
M  CHG  3   5  -1  16   1  19  -1
M  END
>  <EmbedRMS>  (77) 
0.0868688204514779

$$$$

     RDKit          3D

 64 67  0  0  0  0  0  0  0  0999 V2000
   10.2815   43.7757   33.8097 C   0  0  0  0  0  0  0  0  0  0  0  0
   11.4045   43.5923   34.3657 O   0  0  0  0  0  0  0  0  0  0  0  0
    9.3713   42.7283   33.6948 O   0  0  0  0  0  0  0  0  0  0  0  0
    9.8868   41.2332   34.2836 P   0  0  0  0  0  5  0  0  0  0  0  0
   10.3658   41.4703   35.8743 O   0  0  0  0  0  1  0  0  0  0  0  0
    9.9448   45.1230   33.2616 C   0  0  2  0  0  0  0  0  0  0  0  0
   11.0797   46.0245   33.4668 N   0  0  0  0  0  0  0  0  0  0  0  0
    8.6947   45.7064   33.9548 C   0  0  0  0  0  0  0  0  0  0  0  0
    7.4518   44.9438   33.6109 C   0  0  0  0  0  0  0  0  0  0  0  0
    6.9307   44.0314   34.5320 O   0  0  0  0  0  0  0  0  0  0  0  0
    6.9112   45.0997   32.4819 O   0  0  0  0  0  0  0  0  0  0  0  0
    5.8456   43.1601   34.2250 C   0  0  0  0  0  0  0  0  0  0  0  0
    5.5574   42.2204   35.3744 C   0  0  0  0  0  0  0  0  0  0  0  0
    4.2805   41.6188   35.5328 C   0  0  0  0  0  0  0  0  0  0  0  0
    6.5794   41.9040   36.2925 C   0  0  0  0  0  0  0  0  0  0  0  0
    3.2223   41.8305   34.5810 N   0  0  0  0  0  4  0  0  0  0  0  0
    4.0457   40.7851   36.6416 C   0  0  0  0  0  0  0  0  0  0  0  0
    6.3308   41.0584   37.3740 C   0  0  0  0  0  0  0  0  0  0  0  0
    3.4889   41.8350   33.2312 O   0  0  0  0  0  1  0  0  0  0  0  0
    2.0320   41.8293   34.9576 O   0  0  0  0  0  0  0  0  0  0  0  0
    5.0639   40.5086   37.5542 C   0  0  0  0  0  0  0  0  0  0  0  0
    8.8080   40.1915   34.2081 O   0  0  0  0  0  0  0  0  0  0  0  0
   11.2380   40.7885   33.3688 O   0  0  0  0  0  0  0  0  0  0  0  0
   10.9163   40.6893   31.9958 C   0  0  0  0  0  0  0  0  0  0  0  0
   11.5272   39.3895   31.4370 C   0  0  0  0  0  0  0  0  0  0  0  0
   12.7510   39.0913   32.0833 O   0  0  0  0  0  0  0  0  0  0  0  0
   10.6122   38.1915   31.6452 C   0  0  0  0  0  0  0  0  0  0  0  0
   12.9429   37.6850   32.0294 C   0  0  0  0  0  0  0  0  0  0  0  0
    9.6068   38.0858   30.6604 O   0  0  0  0  0  0  0  0  0  0  0  0
   11.5844   37.0185   31.6879 C   0  0  0  0  0  0  0  0  0  0  0  0
   13.4898   37.2163   33.3249 N   0  0  0  0  0  0  0  0  0  0  0  0
   11.6200   36.3061   30.4693 O   0  0  0  0  0  0  0  0  0  0  0  0
   14.4759   36.3263   33.5739 C   0  0  0  0  0  0  0  0  0  0  0  0
   13.1175   37.6307   34.5698 C   0  0  0  0  0  0  0  0  0  0  0  0
   15.2065   35.6138   32.6746 N   0  0  0  0  0  0  0  0  0  0  0  0
   14.6731   36.2268   34.9191 C   0  0  0  0  0  0  0  0  0  0  0  0
   13.8224   37.0450   35.5792 N   0  0  0  0  0  0  0  0  0  0  0  0
   16.1640   34.7596   33.1551 C   0  0  0  0  0  0  0  0  0  0  0  0
   15.6517   35.3489   35.4136 C   0  0  0  0  0  0  0  0  0  0  0  0
   16.3795   34.6310   34.5046 N   0  0  0  0  0  0  0  0  0  0  0  0
   15.9006   35.1931   36.8094 N   0  0  0  0  0  0  0  0  0  0  0  0
    9.7501   45.0252   32.1692 H   0  0  0  0  0  0  0  0  0  0  0  0
   11.8826   45.6819   32.8891 H   0  0  0  0  0  0  0  0  0  0  0  0
   10.8368   46.9616   33.0700 H   0  0  0  0  0  0  0  0  0  0  0  0
    8.8382   45.7079   35.0578 H   0  0  0  0  0  0  0  0  0  0  0  0
    8.5486   46.7619   33.6376 H   0  0  0  0  0  0  0  0  0  0  0  0
    6.1005   42.5563   33.3274 H   0  0  0  0  0  0  0  0  0  0  0  0
    4.9513   43.7835   34.0098 H   0  0  0  0  0  0  0  0  0  0  0  0
    7.5732   42.3178   36.1830 H   0  0  0  0  0  0  0  0  0  0  0  0
    3.0760   40.3254   36.7851 H   0  0  0  0  0  0  0  0  0  0  0  0
    7.1229   40.8318   38.0760 H   0  0  0  0  0  0  0  0  0  0  0  0
    4.8731   39.8555   38.3960 H   0  0  0  0  0  0  0  0  0  0  0  0
    9.8262   40.7191   31.7585 H   0  0  0  0  0  0  0  0  0  0  0  0
   11.3837   41.5523   31.4751 H   0  0  0  0  0  0  0  0  0  0  0  0
   11.7318   39.5335   30.3515 H   0  0  0  0  0  0  0  0  0  0  0  0
   10.1216   38.2684   32.6413 H   0  0  0  0  0  0  0  0  0  0  0  0
   13.6882   37.4702   31.2318 H   0  0  0  0  0  0  0  0  0  0  0  0
   10.0254   38.1749   29.7657 H   0  0  0  0  0  0  0  0  0  0  0  0
   11.2794   36.3123   32.4916 H   0  0  0  0  0  0  0  0  0  0  0  0
   11.9869   36.9098   29.7714 H   0  0  0  0  0  0  0  0  0  0  0  0
   12.3364   38.3595   34.7452 H   0  0  0  0  0  0  0  0  0  0  0  0
   16.7576   34.1794   32.4622 H   0  0  0  0  0  0  0  0  0  0  0  0
   15.3532   35.7351   37.5144 H   0  0  0  0  0  0  0  0  0  0  0  0
   16.6368   34.5316   37.1418 H   0  0  0  0  0  0  0  0  0  0  0  0
  1  2  2  0
  1  3  1  0
  3  4  1  0
  4  5  1  0
  6  1  1  0
  7  6  1  0
  6  8  1  0
  8  9  1  0
  9 10  1  0
  9 11  2  0
 10 12  1  0
 12 13  1  0
 13 14  2  0
 15 13  1  0
 14 16  1  0
 14 17  1  0
 18 15  2  0
 16 19  1  0
 16 20  2  0
 17 21  2  0
 21 18  1  0
  4 22  2  0
  4 23  1  0
 24 23  1  0
 24 25  1  0
 25 26  1  0
 25 27  1  0
 26 28  1  0
 27 29  1  0
 27 30  1  0
 30 28  1  0
 28 31  1  0
 30 32  1  0
 33 31  1  0
 34 31  1  0
 35 33  2  0
 33 36  1  0
 37 34  2  0
 38 35  1  0
 36 39  2  0
 36 37  1  0
 40 38  2  0
 40 39  1  0
 39 41  1  0
  6 42  1  6
  7 43  1  0
  7 44  1  0
  8 45  1  0
  8 46  1  0
 12 47  1  0
 12 48  1  0
 15 49  1  0
 17 50  1  0
 18 51  1  0
 21 52  1  0
 24 53  1  0
 24 54  1  0
 25 55  1  0
 27 56  1  0
 28 57  1  0
 29 58  1  0
 30 59  1  0
 32 60  1  0
 34 61  1  0
 38 62  1  0
 41 63  1  0
 41 64  1  0
M  CHG  3   5  -1  16   1  19  -1
M  END
>  <EmbedRMS>  (78) 
0.0876185194996671

$$$$

     RDKit          3D

 64 67  0  0  0  0  0  0  0  0999 V2000
   10.2843   43.7743   33.8070 C   0  0  0  0  0  0  0  0  0  0  0  0
   11.4069   43.5904   34.3636 O   0  0  0  0  0  0  0  0  0  0  0  0
    9.3679   42.7310   33.6991 O   0  0  0  0  0  0  0  0  0  0  0  0
    9.8860   41.2342   34.2840 P   0  0  0  0  0  5  0  0  0  0  0  0
   10.3656   41.4697   35.8747 O   0  0  0  0  0  1  0  0  0  0  0  0
    9.9497   45.1158   33.2538 C   0  0  2  0  0  0  0  0  0  0  0  0
   11.0752   46.0280   33.4738 N   0  0  0  0  0  0  0  0  0  0  0  0
    8.6758   45.6523   33.9366 C   0  0  0  0  0  0  0  0  0  0  0  0
    8.1892   46.9075   33.2812 C   0  0  0  0  0  0  0  0  0  0  0  0
    7.6173   46.8393   32.0056 O   0  0  0  0  0  0  0  0  0  0  0  0
    8.3282   48.0162   33.8668 O   0  0  0  0  0  0  0  0  0  0  0  0
    7.2506   47.9961   31.2541 C   0  0  0  0  0  0  0  0  0  0  0  0
    8.4727   48.7559   30.7826 C   0  0  0  0  0  0  0  0  0  0  0  0
    8.4834   50.1719   30.6864 C   0  0  0  0  0  0  0  0  0  0  0  0
    9.6272   48.0372   30.4163 C   0  0  0  0  0  0  0  0  0  0  0  0
    7.3021   50.9529   30.9324 N   0  0  0  0  0  4  0  0  0  0  0  0
    9.6727   50.8269   30.3188 C   0  0  0  0  0  0  0  0  0  0  0  0
   10.7924   48.7047   30.0374 C   0  0  0  0  0  0  0  0  0  0  0  0
    6.0928   50.5633   30.4041 O   0  0  0  0  0  1  0  0  0  0  0  0
    7.3971   52.0869   31.4458 O   0  0  0  0  0  0  0  0  0  0  0  0
   10.8189   50.0973   30.0008 C   0  0  0  0  0  0  0  0  0  0  0  0
    8.8086   40.1912   34.2076 O   0  0  0  0  0  0  0  0  0  0  0  0
   11.2386   40.7907   33.3693 O   0  0  0  0  0  0  0  0  0  0  0  0
   10.9192   40.6905   31.9958 C   0  0  0  0  0  0  0  0  0  0  0  0
   11.5176   39.3823   31.4410 C   0  0  0  0  0  0  0  0  0  0  0  0
   12.7496   39.0892   32.0755 O   0  0  0  0  0  0  0  0  0  0  0  0
   10.6037   38.1900   31.6659 C   0  0  0  0  0  0  0  0  0  0  0  0
   12.9401   37.6833   32.0276 C   0  0  0  0  0  0  0  0  0  0  0  0
    9.6376   38.0785   30.6474 O   0  0  0  0  0  0  0  0  0  0  0  0
   11.5803   37.0203   31.6937 C   0  0  0  0  0  0  0  0  0  0  0  0
   13.4902   37.2177   33.3237 N   0  0  0  0  0  0  0  0  0  0  0  0
   11.6117   36.3193   30.4680 O   0  0  0  0  0  0  0  0  0  0  0  0
   14.4759   36.3271   33.5731 C   0  0  0  0  0  0  0  0  0  0  0  0
   13.1176   37.6317   34.5688 C   0  0  0  0  0  0  0  0  0  0  0  0
   15.2064   35.6141   32.6742 N   0  0  0  0  0  0  0  0  0  0  0  0
   14.6729   36.2274   34.9184 C   0  0  0  0  0  0  0  0  0  0  0  0
   13.8221   37.0457   35.5783 N   0  0  0  0  0  0  0  0  0  0  0  0
   16.1637   34.7597   33.1549 C   0  0  0  0  0  0  0  0  0  0  0  0
   15.6514   35.3493   35.4133 C   0  0  0  0  0  0  0  0  0  0  0  0
   16.3791   34.6312   34.5044 N   0  0  0  0  0  0  0  0  0  0  0  0
   15.9001   35.1935   36.8091 N   0  0  0  0  0  0  0  0  0  0  0  0
    9.7675   45.0022   32.1610 H   0  0  0  0  0  0  0  0  0  0  0  0
   10.8436   46.9582   33.0567 H   0  0  0  0  0  0  0  0  0  0  0  0
   11.8934   45.6815   32.9204 H   0  0  0  0  0  0  0  0  0  0  0  0
    7.8612   44.8989   33.8675 H   0  0  0  0  0  0  0  0  0  0  0  0
    8.8742   45.8390   35.0155 H   0  0  0  0  0  0  0  0  0  0  0  0
    6.6688   47.6743   30.3655 H   0  0  0  0  0  0  0  0  0  0  0  0
    6.5950   48.6294   31.8881 H   0  0  0  0  0  0  0  0  0  0  0  0
    9.6337   46.9548   30.4401 H   0  0  0  0  0  0  0  0  0  0  0  0
    9.7039   51.9071   30.2514 H   0  0  0  0  0  0  0  0  0  0  0  0
   11.6779   48.1401   29.7754 H   0  0  0  0  0  0  0  0  0  0  0  0
   11.7248   50.6129   29.7090 H   0  0  0  0  0  0  0  0  0  0  0  0
   11.4002   41.5454   31.4742 H   0  0  0  0  0  0  0  0  0  0  0  0
    9.8313   40.7398   31.7557 H   0  0  0  0  0  0  0  0  0  0  0  0
   11.6991   39.5090   30.3487 H   0  0  0  0  0  0  0  0  0  0  0  0
   10.1131   38.2590   32.6664 H   0  0  0  0  0  0  0  0  0  0  0  0
   13.6800   37.4626   31.2265 H   0  0  0  0  0  0  0  0  0  0  0  0
    8.8954   38.6910   30.8890 H   0  0  0  0  0  0  0  0  0  0  0  0
   11.2830   36.3060   32.4929 H   0  0  0  0  0  0  0  0  0  0  0  0
   11.8859   36.9588   29.7593 H   0  0  0  0  0  0  0  0  0  0  0  0
   12.3360   38.3600   34.7441 H   0  0  0  0  0  0  0  0  0  0  0  0
   16.7572   34.1793   32.4621 H   0  0  0  0  0  0  0  0  0  0  0  0
   16.6362   34.5318   37.1416 H   0  0  0  0  0  0  0  0  0  0  0  0
   15.3528   35.7357   37.5140 H   0  0  0  0  0  0  0  0  0  0  0  0
  1  2  2  0
  1  3  1  0
  3  4  1  0
  4  5  1  0
  6  1  1  0
  7  6  1  0
  6  8  1  0
  8  9  1  0
  9 10  1  0
  9 11  2  0
 10 12  1  0
 12 13  1  0
 13 14  2  0
 15 13  1  0
 14 16  1  0
 14 17  1  0
 18 15  2  0
 16 19  1  0
 16 20  2  0
 17 21  2  0
 21 18  1  0
  4 22  2  0
  4 23  1  0
 24 23  1  0
 24 25  1  0
 25 26  1  0
 25 27  1  0
 26 28  1  0
 27 29  1  0
 27 30  1  0
 30 28  1  0
 28 31  1  0
 30 32  1  0
 33 31  1  0
 34 31  1  0
 35 33  2  0
 33 36  1  0
 37 34  2  0
 38 35  1  0
 36 39  2  0
 36 37  1  0
 40 38  2  0
 40 39  1  0
 39 41  1  0
  6 42  1  6
  7 43  1  0
  7 44  1  0
  8 45  1  0
  8 46  1  0
 12 47  1  0
 12 48  1  0
 15 49  1  0
 17 50  1  0
 18 51  1  0
 21 52  1  0
 24 53  1  0
 24 54  1  0
 25 55  1  0
 27 56  1  0
 28 57  1  0
 29 58  1  0
 30 59  1  0
 32 60  1  0
 34 61  1  0
 38 62  1  0
 41 63  1  0
 41 64  1  0
M  CHG  3   5  -1  16   1  19  -1
M  END
>  <EmbedRMS>  (79) 
0.08836100781370916

$$$$

     RDKit          3D

 64 67  0  0  0  0  0  0  0  0999 V2000
   10.2860   43.7719   33.8047 C   0  0  0  0  0  0  0  0  0  0  0  0
   11.4085   43.5885   34.3612 O   0  0  0  0  0  0  0  0  0  0  0  0
    9.3677   42.7307   33.6990 O   0  0  0  0  0  0  0  0  0  0  0  0
    9.8858   41.2339   34.2835 P   0  0  0  0  0  5  0  0  0  0  0  0
   10.3656   41.4699   35.8742 O   0  0  0  0  0  1  0  0  0  0  0  0
    9.9529   45.1148   33.2535 C   0  0  2  0  0  0  0  0  0  0  0  0
   11.0714   46.0331   33.4765 N   0  0  0  0  0  0  0  0  0  0  0  0
    8.6603   45.6656   33.8895 C   0  0  0  0  0  0  0  0  0  0  0  0
    8.7921   45.8585   35.3712 C   0  0  0  0  0  0  0  0  0  0  0  0
    9.4273   47.0027   35.8606 O   0  0  0  0  0  0  0  0  0  0  0  0
    8.3631   44.9728   36.1603 O   0  0  0  0  0  0  0  0  0  0  0  0
    9.6296   47.2349   37.2499 C   0  0  0  0  0  0  0  0  0  0  0  0
   10.3561   48.5404   37.4364 C   0  0  0  0  0  0  0  0  0  0  0  0
    9.6732   49.7824   37.5206 C   0  0  0  0  0  0  0  0  0  0  0  0
   11.7599   48.5195   37.5211 C   0  0  0  0  0  0  0  0  0  0  0  0
    8.2439   49.8730   37.3801 N   0  0  0  0  0  4  0  0  0  0  0  0
   10.4151   50.9565   37.7472 C   0  0  0  0  0  0  0  0  0  0  0  0
   12.4780   49.6978   37.7286 C   0  0  0  0  0  0  0  0  0  0  0  0
    7.5857   49.1271   36.4300 O   0  0  0  0  0  1  0  0  0  0  0  0
    7.6098   50.7562   37.9937 O   0  0  0  0  0  0  0  0  0  0  0  0
   11.8064   50.9129   37.8495 C   0  0  0  0  0  0  0  0  0  0  0  0
    8.8082   40.1910   34.2077 O   0  0  0  0  0  0  0  0  0  0  0  0
   11.2383   40.7900   33.3684 O   0  0  0  0  0  0  0  0  0  0  0  0
   10.9189   40.6887   31.9947 C   0  0  0  0  0  0  0  0  0  0  0  0
   11.5181   39.3799   31.4397 C   0  0  0  0  0  0  0  0  0  0  0  0
   12.7485   39.0875   32.0749 O   0  0  0  0  0  0  0  0  0  0  0  0
   10.6054   38.1875   31.6656 C   0  0  0  0  0  0  0  0  0  0  0  0
   12.9361   37.6816   32.0288 C   0  0  0  0  0  0  0  0  0  0  0  0
    9.6423   38.0738   30.6445 O   0  0  0  0  0  0  0  0  0  0  0  0
   11.5765   37.0158   31.7046 C   0  0  0  0  0  0  0  0  0  0  0  0
   13.4908   37.2182   33.3237 N   0  0  0  0  0  0  0  0  0  0  0  0
   11.6102   36.3399   30.4680 O   0  0  0  0  0  0  0  0  0  0  0  0
   14.4762   36.3273   33.5728 C   0  0  0  0  0  0  0  0  0  0  0  0
   13.1181   37.6318   34.5689 C   0  0  0  0  0  0  0  0  0  0  0  0
   15.2063   35.6140   32.6739 N   0  0  0  0  0  0  0  0  0  0  0  0
   14.6733   36.2275   34.9182 C   0  0  0  0  0  0  0  0  0  0  0  0
   13.8226   37.0457   35.5783 N   0  0  0  0  0  0  0  0  0  0  0  0
   16.1636   34.7595   33.1546 C   0  0  0  0  0  0  0  0  0  0  0  0
   15.6515   35.3492   35.4130 C   0  0  0  0  0  0  0  0  0  0  0  0
   16.3791   34.6310   34.5041 N   0  0  0  0  0  0  0  0  0  0  0  0
   15.9003   35.1933   36.8089 N   0  0  0  0  0  0  0  0  0  0  0  0
    9.7830   45.0055   32.1587 H   0  0  0  0  0  0  0  0  0  0  0  0
   11.8825   45.7127   32.8975 H   0  0  0  0  0  0  0  0  0  0  0  0
   10.8101   46.9719   33.0961 H   0  0  0  0  0  0  0  0  0  0  0  0
    7.8131   44.9772   33.6759 H   0  0  0  0  0  0  0  0  0  0  0  0
    8.4069   46.6420   33.4232 H   0  0  0  0  0  0  0  0  0  0  0  0
   10.2238   46.3989   37.6808 H   0  0  0  0  0  0  0  0  0  0  0  0
    8.6558   47.2491   37.7846 H   0  0  0  0  0  0  0  0  0  0  0  0
   12.3010   47.5848   37.4367 H   0  0  0  0  0  0  0  0  0  0  0  0
    9.9151   51.9139   37.8230 H   0  0  0  0  0  0  0  0  0  0  0  0
   13.5576   49.6677   37.8000 H   0  0  0  0  0  0  0  0  0  0  0  0
   12.3654   51.8251   38.0136 H   0  0  0  0  0  0  0  0  0  0  0  0
    9.8309   40.7373   31.7550 H   0  0  0  0  0  0  0  0  0  0  0  0
   11.3994   41.5435   31.4724 H   0  0  0  0  0  0  0  0  0  0  0  0
   11.7002   39.5045   30.3473 H   0  0  0  0  0  0  0  0  0  0  0  0
   10.1104   38.2619   32.6636 H   0  0  0  0  0  0  0  0  0  0  0  0
   13.6696   37.4586   31.2222 H   0  0  0  0  0  0  0  0  0  0  0  0
    8.9000   38.6882   30.8814 H   0  0  0  0  0  0  0  0  0  0  0  0
   11.2690   36.3069   32.5091 H   0  0  0  0  0  0  0  0  0  0  0  0
   12.1426   35.5151   30.6153 H   0  0  0  0  0  0  0  0  0  0  0  0
   12.3359   38.3593   34.7445 H   0  0  0  0  0  0  0  0  0  0  0  0
   16.7569   34.1789   32.4618 H   0  0  0  0  0  0  0  0  0  0  0  0
   16.6362   34.5315   37.1414 H   0  0  0  0  0  0  0  0  0  0  0  0
   15.3531   35.7356   37.5138 H   0  0  0  0  0  0  0  0  0  0  0  0
  1  2  2  0
  1  3  1  0
  3  4  1  0
  4  5  1  0
  6  1  1  0
  7  6  1  0
  6  8  1  0
  8  9  1  0
  9 10  1  0
  9 11  2  0
 10 12  1  0
 12 13  1  0
 13 14  2  0
 15 13  1  0
 14 16  1  0
 14 17  1  0
 18 15  2  0
 16 19  1  0
 16 20  2  0
 17 21  2  0
 21 18  1  0
  4 22  2  0
  4 23  1  0
 24 23  1  0
 24 25  1  0
 25 26  1  0
 25 27  1  0
 26 28  1  0
 27 29  1  0
 27 30  1  0
 30 28  1  0
 28 31  1  0
 30 32  1  0
 33 31  1  0
 34 31  1  0
 35 33  2  0
 33 36  1  0
 37 34  2  0
 38 35  1  0
 36 39  2  0
 36 37  1  0
 40 38  2  0
 40 39  1  0
 39 41  1  0
  6 42  1  6
  7 43  1  0
  7 44  1  0
  8 45  1  0
  8 46  1  0
 12 47  1  0
 12 48  1  0
 15 49  1  0
 17 50  1  0
 18 51  1  0
 21 52  1  0
 24 53  1  0
 24 54  1  0
 25 55  1  0
 27 56  1  0
 28 57  1  0
 29 58  1  0
 30 59  1  0
 32 60  1  0
 34 61  1  0
 38 62  1  0
 41 63  1  0
 41 64  1  0
M  CHG  3   5  -1  16   1  19  -1
M  END
>  <EmbedRMS>  (80) 
0.08933163139081851

$$$$

     RDKit          3D

 64 67  0  0  0  0  0  0  0  0999 V2000
   10.2884   43.7706   33.8002 C   0  0  0  0  0  0  0  0  0  0  0  0
   11.4106   43.5872   34.3572 O   0  0  0  0  0  0  0  0  0  0  0  0
    9.3683   42.7305   33.6977 O   0  0  0  0  0  0  0  0  0  0  0  0
    9.8847   41.2345   34.2850 P   0  0  0  0  0  5  0  0  0  0  0  0
   10.3647   41.4718   35.8754 O   0  0  0  0  0  1  0  0  0  0  0  0
    9.9517   45.1155   33.2565 C   0  0  2  0  0  0  0  0  0  0  0  0
   11.0692   46.0345   33.4797 N   0  0  0  0  0  0  0  0  0  0  0  0
    8.6607   45.6623   33.9002 C   0  0  0  0  0  0  0  0  0  0  0  0
    8.8014   45.8744   35.3794 C   0  0  0  0  0  0  0  0  0  0  0  0
    8.8663   44.7646   36.2289 O   0  0  0  0  0  0  0  0  0  0  0  0
    8.8753   47.0455   35.8422 O   0  0  0  0  0  0  0  0  0  0  0  0
    8.9217   44.8665   37.6495 C   0  0  0  0  0  0  0  0  0  0  0  0
    7.5838   45.2982   38.2025 C   0  0  0  0  0  0  0  0  0  0  0  0
    6.3787   44.6074   37.8959 C   0  0  0  0  0  0  0  0  0  0  0  0
    7.5300   46.4463   39.0140 C   0  0  0  0  0  0  0  0  0  0  0  0
    6.3620   43.4196   37.0819 N   0  0  0  0  0  4  0  0  0  0  0  0
    5.1599   45.1100   38.3854 C   0  0  0  0  0  0  0  0  0  0  0  0
    6.3107   46.9174   39.5018 C   0  0  0  0  0  0  0  0  0  0  0  0
    5.2571   43.1283   36.3153 O   0  0  0  0  0  1  0  0  0  0  0  0
    7.2658   42.5645   37.1784 O   0  0  0  0  0  0  0  0  0  0  0  0
    5.1278   46.2534   39.1846 C   0  0  0  0  0  0  0  0  0  0  0  0
    8.8070   40.1919   34.2096 O   0  0  0  0  0  0  0  0  0  0  0  0
   11.2365   40.7894   33.3698 O   0  0  0  0  0  0  0  0  0  0  0  0
   10.9155   40.6896   31.9966 C   0  0  0  0  0  0  0  0  0  0  0  0
   11.5270   39.3899   31.4376 C   0  0  0  0  0  0  0  0  0  0  0  0
   12.7508   39.0916   32.0839 O   0  0  0  0  0  0  0  0  0  0  0  0
   10.6122   38.1916   31.6452 C   0  0  0  0  0  0  0  0  0  0  0  0
   12.9429   37.6853   32.0295 C   0  0  0  0  0  0  0  0  0  0  0  0
    9.6070   38.0858   30.6603 O   0  0  0  0  0  0  0  0  0  0  0  0
   11.5845   37.0186   31.6880 C   0  0  0  0  0  0  0  0  0  0  0  0
   13.4899   37.2163   33.3250 N   0  0  0  0  0  0  0  0  0  0  0  0
   11.6202   36.3064   30.4692 O   0  0  0  0  0  0  0  0  0  0  0  0
   14.4759   36.3263   33.5739 C   0  0  0  0  0  0  0  0  0  0  0  0
   13.1176   37.6307   34.5699 C   0  0  0  0  0  0  0  0  0  0  0  0
   15.2065   35.6138   32.6746 N   0  0  0  0  0  0  0  0  0  0  0  0
   14.6731   36.2267   34.9191 C   0  0  0  0  0  0  0  0  0  0  0  0
   13.8224   37.0450   35.5792 N   0  0  0  0  0  0  0  0  0  0  0  0
   16.1640   34.7595   33.1551 C   0  0  0  0  0  0  0  0  0  0  0  0
   15.6517   35.3489   35.4136 C   0  0  0  0  0  0  0  0  0  0  0  0
   16.3795   34.6309   34.5046 N   0  0  0  0  0  0  0  0  0  0  0  0
   15.9005   35.1931   36.8094 N   0  0  0  0  0  0  0  0  0  0  0  0
    9.7774   45.0102   32.1620 H   0  0  0  0  0  0  0  0  0  0  0  0
   11.8786   45.7181   32.8962 H   0  0  0  0  0  0  0  0  0  0  0  0
   10.8044   46.9744   33.1043 H   0  0  0  0  0  0  0  0  0  0  0  0
    7.8213   44.9567   33.7183 H   0  0  0  0  0  0  0  0  0  0  0  0
    8.3855   46.6222   33.4108 H   0  0  0  0  0  0  0  0  0  0  0  0
    9.1945   43.8800   38.0770 H   0  0  0  0  0  0  0  0  0  0  0  0
    9.7349   45.5690   37.9365 H   0  0  0  0  0  0  0  0  0  0  0  0
    8.4340   46.9886   39.2623 H   0  0  0  0  0  0  0  0  0  0  0  0
    4.2294   44.6044   38.1606 H   0  0  0  0  0  0  0  0  0  0  0  0
    6.2827   47.8041   40.1221 H   0  0  0  0  0  0  0  0  0  0  0  0
    4.1830   46.6237   39.5610 H   0  0  0  0  0  0  0  0  0  0  0  0
   11.3826   41.5527   31.4757 H   0  0  0  0  0  0  0  0  0  0  0  0
    9.8254   40.7189   31.7591 H   0  0  0  0  0  0  0  0  0  0  0  0
   11.7318   39.5342   30.3522 H   0  0  0  0  0  0  0  0  0  0  0  0
   10.1215   38.2681   32.6413 H   0  0  0  0  0  0  0  0  0  0  0  0
   13.6883   37.4709   31.2320 H   0  0  0  0  0  0  0  0  0  0  0  0
   10.0257   38.1752   29.7657 H   0  0  0  0  0  0  0  0  0  0  0  0
   11.2796   36.3124   32.4915 H   0  0  0  0  0  0  0  0  0  0  0  0
   11.9873   36.9101   29.7715 H   0  0  0  0  0  0  0  0  0  0  0  0
   12.3365   38.3596   34.7454 H   0  0  0  0  0  0  0  0  0  0  0  0
   16.7575   34.1793   32.4622 H   0  0  0  0  0  0  0  0  0  0  0  0
   15.3531   35.7351   37.5143 H   0  0  0  0  0  0  0  0  0  0  0  0
   16.6367   34.5316   37.1419 H   0  0  0  0  0  0  0  0  0  0  0  0
  1  2  2  0
  1  3  1  0
  3  4  1  0
  4  5  1  0
  6  1  1  0
  7  6  1  0
  6  8  1  0
  8  9  1  0
  9 10  1  0
  9 11  2  0
 10 12  1  0
 12 13  1  0
 13 14  2  0
 15 13  1  0
 14 16  1  0
 14 17  1  0
 18 15  2  0
 16 19  1  0
 16 20  2  0
 17 21  2  0
 21 18  1  0
  4 22  2  0
  4 23  1  0
 24 23  1  0
 24 25  1  0
 25 26  1  0
 25 27  1  0
 26 28  1  0
 27 29  1  0
 27 30  1  0
 30 28  1  0
 28 31  1  0
 30 32  1  0
 33 31  1  0
 34 31  1  0
 35 33  2  0
 33 36  1  0
 37 34  2  0
 38 35  1  0
 36 39  2  0
 36 37  1  0
 40 38  2  0
 40 39  1  0
 39 41  1  0
  6 42  1  6
  7 43  1  0
  7 44  1  0
  8 45  1  0
  8 46  1  0
 12 47  1  0
 12 48  1  0
 15 49  1  0
 17 50  1  0
 18 51  1  0
 21 52  1  0
 24 53  1  0
 24 54  1  0
 25 55  1  0
 27 56  1  0
 28 57  1  0
 29 58  1  0
 30 59  1  0
 32 60  1  0
 34 61  1  0
 38 62  1  0
 41 63  1  0
 41 64  1  0
M  CHG  3   5  -1  16   1  19  -1
M  END
>  <EmbedRMS>  (81) 
0.08705585331908351

$$$$

     RDKit          3D

 64 67  0  0  0  0  0  0  0  0999 V2000
   10.2844   43.7742   33.8069 C   0  0  0  0  0  0  0  0  0  0  0  0
   11.4069   43.5903   34.3636 O   0  0  0  0  0  0  0  0  0  0  0  0
    9.3679   42.7310   33.6988 O   0  0  0  0  0  0  0  0  0  0  0  0
    9.8863   41.2340   34.2827 P   0  0  0  0  0  5  0  0  0  0  0  0
   10.3670   41.4692   35.8732 O   0  0  0  0  0  1  0  0  0  0  0  0
    9.9498   45.1157   33.2539 C   0  0  2  0  0  0  0  0  0  0  0  0
   11.0751   46.0285   33.4736 N   0  0  0  0  0  0  0  0  0  0  0  0
    8.6757   45.6520   33.9371 C   0  0  0  0  0  0  0  0  0  0  0  0
    8.1975   46.9126   33.2868 C   0  0  0  0  0  0  0  0  0  0  0  0
    7.6809   46.8596   31.9880 O   0  0  0  0  0  0  0  0  0  0  0  0
    8.2989   48.0114   33.8972 O   0  0  0  0  0  0  0  0  0  0  0  0
    7.3883   48.0209   31.2133 C   0  0  0  0  0  0  0  0  0  0  0  0
    8.6623   48.7446   30.8384 C   0  0  0  0  0  0  0  0  0  0  0  0
    8.8235   50.1457   30.9950 C   0  0  0  0  0  0  0  0  0  0  0  0
    9.6890   48.0022   30.2263 C   0  0  0  0  0  0  0  0  0  0  0  0
    7.8189   50.9568   31.6207 N   0  0  0  0  0  4  0  0  0  0  0  0
    9.9991   50.7599   30.5295 C   0  0  0  0  0  0  0  0  0  0  0  0
   10.8576   48.6266   29.7882 C   0  0  0  0  0  0  0  0  0  0  0  0
    7.4027   50.6676   32.8993 O   0  0  0  0  0  1  0  0  0  0  0  0
    7.5162   52.0615   31.1245 O   0  0  0  0  0  0  0  0  0  0  0  0
   11.0109   50.0038   29.9361 C   0  0  0  0  0  0  0  0  0  0  0  0
    8.8083   40.1914   34.2077 O   0  0  0  0  0  0  0  0  0  0  0  0
   11.2377   40.7904   33.3657 O   0  0  0  0  0  0  0  0  0  0  0  0
   10.9146   40.6850   31.9928 C   0  0  0  0  0  0  0  0  0  0  0  0
   11.5168   39.3773   31.4392 C   0  0  0  0  0  0  0  0  0  0  0  0
   12.7473   39.0854   32.0738 O   0  0  0  0  0  0  0  0  0  0  0  0
   10.6048   38.1868   31.6669 C   0  0  0  0  0  0  0  0  0  0  0  0
   12.9346   37.6790   32.0282 C   0  0  0  0  0  0  0  0  0  0  0  0
    9.6378   38.0918   30.6488 O   0  0  0  0  0  0  0  0  0  0  0  0
   11.5761   37.0129   31.7057 C   0  0  0  0  0  0  0  0  0  0  0  0
   13.4909   37.2177   33.3233 N   0  0  0  0  0  0  0  0  0  0  0  0
   11.6233   36.3371   30.4684 O   0  0  0  0  0  0  0  0  0  0  0  0
   14.4765   36.3271   33.5727 C   0  0  0  0  0  0  0  0  0  0  0  0
   13.1182   37.6315   34.5685 C   0  0  0  0  0  0  0  0  0  0  0  0
   15.2066   35.6137   32.6739 N   0  0  0  0  0  0  0  0  0  0  0  0
   14.6736   36.2276   34.9182 C   0  0  0  0  0  0  0  0  0  0  0  0
   13.8227   37.0457   35.5781 N   0  0  0  0  0  0  0  0  0  0  0  0
   16.1638   34.7592   33.1548 C   0  0  0  0  0  0  0  0  0  0  0  0
   15.6517   35.3492   35.4131 C   0  0  0  0  0  0  0  0  0  0  0  0
   16.3792   34.6309   34.5043 N   0  0  0  0  0  0  0  0  0  0  0  0
   15.9003   35.1934   36.8090 N   0  0  0  0  0  0  0  0  0  0  0  0
    9.7677   45.0031   32.1608 H   0  0  0  0  0  0  0  0  0  0  0  0
   10.8452   46.9561   33.0495 H   0  0  0  0  0  0  0  0  0  0  0  0
   11.8952   45.6789   32.9251 H   0  0  0  0  0  0  0  0  0  0  0  0
    8.8721   45.8315   35.0177 H   0  0  0  0  0  0  0  0  0  0  0  0
    7.8586   44.9022   33.8603 H   0  0  0  0  0  0  0  0  0  0  0  0
    6.6641   48.6559   31.7585 H   0  0  0  0  0  0  0  0  0  0  0  0
    6.8851   47.6988   30.2775 H   0  0  0  0  0  0  0  0  0  0  0  0
    9.5804   46.9341   30.0811 H   0  0  0  0  0  0  0  0  0  0  0  0
   10.1375   51.8279   30.6430 H   0  0  0  0  0  0  0  0  0  0  0  0
   11.6412   48.0423   29.3234 H   0  0  0  0  0  0  0  0  0  0  0  0
   11.9154   50.4872   29.5902 H   0  0  0  0  0  0  0  0  0  0  0  0
    9.8246   40.7214   31.7562 H   0  0  0  0  0  0  0  0  0  0  0  0
   11.3877   41.5415   31.4666 H   0  0  0  0  0  0  0  0  0  0  0  0
   11.6989   39.5011   30.3466 H   0  0  0  0  0  0  0  0  0  0  0  0
   10.1096   38.2772   32.6628 H   0  0  0  0  0  0  0  0  0  0  0  0
   13.6672   37.4543   31.2212 H   0  0  0  0  0  0  0  0  0  0  0  0
    8.9779   37.4158   30.9534 H   0  0  0  0  0  0  0  0  0  0  0  0
   11.2860   36.3041   32.5177 H   0  0  0  0  0  0  0  0  0  0  0  0
   10.8689   35.6918   30.4658 H   0  0  0  0  0  0  0  0  0  0  0  0
   12.3356   38.3587   34.7439 H   0  0  0  0  0  0  0  0  0  0  0  0
   16.7572   34.1785   32.4621 H   0  0  0  0  0  0  0  0  0  0  0  0
   16.6361   34.5315   37.1415 H   0  0  0  0  0  0  0  0  0  0  0  0
   15.3530   35.7358   37.5138 H   0  0  0  0  0  0  0  0  0  0  0  0
  1  2  2  0
  1  3  1  0
  3  4  1  0
  4  5  1  0
  6  1  1  0
  7  6  1  0
  6  8  1  0
  8  9  1  0
  9 10  1  0
  9 11  2  0
 10 12  1  0
 12 13  1  0
 13 14  2  0
 15 13  1  0
 14 16  1  0
 14 17  1  0
 18 15  2  0
 16 19  1  0
 16 20  2  0
 17 21  2  0
 21 18  1  0
  4 22  2  0
  4 23  1  0
 24 23  1  0
 24 25  1  0
 25 26  1  0
 25 27  1  0
 26 28  1  0
 27 29  1  0
 27 30  1  0
 30 28  1  0
 28 31  1  0
 30 32  1  0
 33 31  1  0
 34 31  1  0
 35 33  2  0
 33 36  1  0
 37 34  2  0
 38 35  1  0
 36 39  2  0
 36 37  1  0
 40 38  2  0
 40 39  1  0
 39 41  1  0
  6 42  1  6
  7 43  1  0
  7 44  1  0
  8 45  1  0
  8 46  1  0
 12 47  1  0
 12 48  1  0
 15 49  1  0
 17 50  1  0
 18 51  1  0
 21 52  1  0
 24 53  1  0
 24 54  1  0
 25 55  1  0
 27 56  1  0
 28 57  1  0
 29 58  1  0
 30 59  1  0
 32 60  1  0
 34 61  1  0
 38 62  1  0
 41 63  1  0
 41 64  1  0
M  CHG  3   5  -1  16   1  19  -1
M  END
>  <EmbedRMS>  (82) 
0.08906438881991423

$$$$

     RDKit          3D

 64 67  0  0  0  0  0  0  0  0999 V2000
   10.2860   43.7721   33.8047 C   0  0  0  0  0  0  0  0  0  0  0  0
   11.4085   43.5884   34.3610 O   0  0  0  0  0  0  0  0  0  0  0  0
    9.3673   42.7311   33.6995 O   0  0  0  0  0  0  0  0  0  0  0  0
    9.8850   41.2344   34.2845 P   0  0  0  0  0  5  0  0  0  0  0  0
   10.3654   41.4703   35.8749 O   0  0  0  0  0  1  0  0  0  0  0  0
    9.9531   45.1148   33.2533 C   0  0  2  0  0  0  0  0  0  0  0  0
   11.0713   46.0333   33.4766 N   0  0  0  0  0  0  0  0  0  0  0  0
    8.6603   45.6658   33.8884 C   0  0  0  0  0  0  0  0  0  0  0  0
    8.7928   45.8663   35.3688 C   0  0  0  0  0  0  0  0  0  0  0  0
    9.3645   47.0474   35.8542 O   0  0  0  0  0  0  0  0  0  0  0  0
    8.4212   44.9570   36.1603 O   0  0  0  0  0  0  0  0  0  0  0  0
    9.5184   47.3273   37.2442 C   0  0  0  0  0  0  0  0  0  0  0  0
    8.1749   47.5576   37.8981 C   0  0  0  0  0  0  0  0  0  0  0  0
    7.2457   48.5158   37.4067 C   0  0  0  0  0  0  0  0  0  0  0  0
    7.8214   46.7636   39.0048 C   0  0  0  0  0  0  0  0  0  0  0  0
    7.5464   49.3708   36.2881 N   0  0  0  0  0  4  0  0  0  0  0  0
    5.9842   48.6210   38.0194 C   0  0  0  0  0  0  0  0  0  0  0  0
    6.5699   46.8967   39.6069 C   0  0  0  0  0  0  0  0  0  0  0  0
    6.5317   49.8158   35.4719 O   0  0  0  0  0  1  0  0  0  0  0  0
    8.6889   49.8494   36.1379 O   0  0  0  0  0  0  0  0  0  0  0  0
    5.6516   47.8200   39.1124 C   0  0  0  0  0  0  0  0  0  0  0  0
    8.8076   40.1914   34.2088 O   0  0  0  0  0  0  0  0  0  0  0  0
   11.2368   40.7903   33.3690 O   0  0  0  0  0  0  0  0  0  0  0  0
   10.9155   40.6897   31.9960 C   0  0  0  0  0  0  0  0  0  0  0  0
   11.5270   39.3898   31.4374 C   0  0  0  0  0  0  0  0  0  0  0  0
   12.7508   39.0916   32.0839 O   0  0  0  0  0  0  0  0  0  0  0  0
   10.6122   38.1916   31.6452 C   0  0  0  0  0  0  0  0  0  0  0  0
   12.9429   37.6853   32.0295 C   0  0  0  0  0  0  0  0  0  0  0  0
    9.6070   38.0858   30.6603 O   0  0  0  0  0  0  0  0  0  0  0  0
   11.5845   37.0186   31.6879 C   0  0  0  0  0  0  0  0  0  0  0  0
   13.4899   37.2163   33.3250 N   0  0  0  0  0  0  0  0  0  0  0  0
   11.6201   36.3062   30.4693 O   0  0  0  0  0  0  0  0  0  0  0  0
   14.4759   36.3263   33.5738 C   0  0  0  0  0  0  0  0  0  0  0  0
   13.1175   37.6307   34.5699 C   0  0  0  0  0  0  0  0  0  0  0  0
   15.2065   35.6139   32.6746 N   0  0  0  0  0  0  0  0  0  0  0  0
   14.6731   36.2267   34.9191 C   0  0  0  0  0  0  0  0  0  0  0  0
   13.8224   37.0450   35.5792 N   0  0  0  0  0  0  0  0  0  0  0  0
   16.1640   34.7596   33.1551 C   0  0  0  0  0  0  0  0  0  0  0  0
   15.6517   35.3489   35.4136 C   0  0  0  0  0  0  0  0  0  0  0  0
   16.3795   34.6310   34.5046 N   0  0  0  0  0  0  0  0  0  0  0  0
   15.9006   35.1931   36.8094 N   0  0  0  0  0  0  0  0  0  0  0  0
    9.7836   45.0052   32.1584 H   0  0  0  0  0  0  0  0  0  0  0  0
   10.8099   46.9718   33.0952 H   0  0  0  0  0  0  0  0  0  0  0  0
   11.8826   45.7127   32.8982 H   0  0  0  0  0  0  0  0  0  0  0  0
    8.4039   46.6391   33.4171 H   0  0  0  0  0  0  0  0  0  0  0  0
    7.8141   44.9748   33.6800 H   0  0  0  0  0  0  0  0  0  0  0  0
   10.1481   48.2318   37.3690 H   0  0  0  0  0  0  0  0  0  0  0  0
   10.0720   46.4907   37.7247 H   0  0  0  0  0  0  0  0  0  0  0  0
    8.5120   46.0278   39.3982 H   0  0  0  0  0  0  0  0  0  0  0  0
    5.2588   49.3395   37.6594 H   0  0  0  0  0  0  0  0  0  0  0  0
    6.3094   46.2769   40.4552 H   0  0  0  0  0  0  0  0  0  0  0  0
    4.6797   47.9181   39.5788 H   0  0  0  0  0  0  0  0  0  0  0  0
    9.8254   40.7190   31.7587 H   0  0  0  0  0  0  0  0  0  0  0  0
   11.3825   41.5526   31.4747 H   0  0  0  0  0  0  0  0  0  0  0  0
   11.7318   39.5338   30.3520 H   0  0  0  0  0  0  0  0  0  0  0  0
   10.1215   38.2682   32.6413 H   0  0  0  0  0  0  0  0  0  0  0  0
   13.6882   37.4708   31.2319 H   0  0  0  0  0  0  0  0  0  0  0  0
   10.0257   38.1751   29.7656 H   0  0  0  0  0  0  0  0  0  0  0  0
   11.2796   36.3123   32.4915 H   0  0  0  0  0  0  0  0  0  0  0  0
   11.9872   36.9099   29.7714 H   0  0  0  0  0  0  0  0  0  0  0  0
   12.3365   38.3595   34.7453 H   0  0  0  0  0  0  0  0  0  0  0  0
   16.7577   34.1794   32.4622 H   0  0  0  0  0  0  0  0  0  0  0  0
   15.3532   35.7351   37.5143 H   0  0  0  0  0  0  0  0  0  0  0  0
   16.6368   34.5316   37.1418 H   0  0  0  0  0  0  0  0  0  0  0  0
  1  2  2  0
  1  3  1  0
  3  4  1  0
  4  5  1  0
  6  1  1  0
  7  6  1  0
  6  8  1  0
  8  9  1  0
  9 10  1  0
  9 11  2  0
 10 12  1  0
 12 13  1  0
 13 14  2  0
 15 13  1  0
 14 16  1  0
 14 17  1  0
 18 15  2  0
 16 19  1  0
 16 20  2  0
 17 21  2  0
 21 18  1  0
  4 22  2  0
  4 23  1  0
 24 23  1  0
 24 25  1  0
 25 26  1  0
 25 27  1  0
 26 28  1  0
 27 29  1  0
 27 30  1  0
 30 28  1  0
 28 31  1  0
 30 32  1  0
 33 31  1  0
 34 31  1  0
 35 33  2  0
 33 36  1  0
 37 34  2  0
 38 35  1  0
 36 39  2  0
 36 37  1  0
 40 38  2  0
 40 39  1  0
 39 41  1  0
  6 42  1  6
  7 43  1  0
  7 44  1  0
  8 45  1  0
  8 46  1  0
 12 47  1  0
 12 48  1  0
 15 49  1  0
 17 50  1  0
 18 51  1  0
 21 52  1  0
 24 53  1  0
 24 54  1  0
 25 55  1  0
 27 56  1  0
 28 57  1  0
 29 58  1  0
 30 59  1  0
 32 60  1  0
 34 61  1  0
 38 62  1  0
 41 63  1  0
 41 64  1  0
M  CHG  3   5  -1  16   1  19  -1
M  END
>  <EmbedRMS>  (83) 
0.08700846444414205

$$$$

     RDKit          3D

 64 67  0  0  0  0  0  0  0  0999 V2000
   10.2790   43.7750   33.8054 C   0  0  0  0  0  0  0  0  0  0  0  0
   11.4032   43.5901   34.3590 O   0  0  0  0  0  0  0  0  0  0  0  0
    9.3617   42.7318   33.7022 O   0  0  0  0  0  0  0  0  0  0  0  0
    9.8866   41.2355   34.2853 P   0  0  0  0  0  5  0  0  0  0  0  0
   10.3689   41.4720   35.8748 O   0  0  0  0  0  1  0  0  0  0  0  0
    9.9701   45.1075   33.2147 C   0  0  2  0  0  0  0  0  0  0  0  0
   11.0674   46.0304   33.5092 N   0  0  0  0  0  0  0  0  0  0  0  0
    8.6249   45.6674   33.7323 C   0  0  0  0  0  0  0  0  0  0  0  0
    7.4642   45.1089   32.9669 C   0  0  0  0  0  0  0  0  0  0  0  0
    6.5678   44.2371   33.5952 O   0  0  0  0  0  0  0  0  0  0  0  0
    7.2991   45.4434   31.7620 O   0  0  0  0  0  0  0  0  0  0  0  0
    5.4880   43.6024   32.9113 C   0  0  0  0  0  0  0  0  0  0  0  0
    5.9861   42.4014   32.1438 C   0  0  0  0  0  0  0  0  0  0  0  0
    6.1435   41.1267   32.7517 C   0  0  0  0  0  0  0  0  0  0  0  0
    6.2973   42.5549   30.7806 C   0  0  0  0  0  0  0  0  0  0  0  0
    5.8697   40.9074   34.1477 N   0  0  0  0  0  4  0  0  0  0  0  0
    6.5698   40.0416   31.9645 C   0  0  0  0  0  0  0  0  0  0  0  0
    6.7397   41.4696   30.0238 C   0  0  0  0  0  0  0  0  0  0  0  0
    5.4405   39.6723   34.5763 O   0  0  0  0  0  1  0  0  0  0  0  0
    6.1937   41.7580   35.0016 O   0  0  0  0  0  0  0  0  0  0  0  0
    6.8699   40.2144   30.6130 C   0  0  0  0  0  0  0  0  0  0  0  0
    8.8182   40.1845   34.2141 O   0  0  0  0  0  0  0  0  0  0  0  0
   11.2376   40.7954   33.3671 O   0  0  0  0  0  0  0  0  0  0  0  0
   10.9120   40.6901   31.9953 C   0  0  0  0  0  0  0  0  0  0  0  0
   11.5252   39.3902   31.4377 C   0  0  0  0  0  0  0  0  0  0  0  0
   12.7492   39.0924   32.0845 O   0  0  0  0  0  0  0  0  0  0  0  0
   10.6110   38.1916   31.6454 C   0  0  0  0  0  0  0  0  0  0  0  0
   12.9421   37.6860   32.0297 C   0  0  0  0  0  0  0  0  0  0  0  0
    9.6066   38.0843   30.6603 O   0  0  0  0  0  0  0  0  0  0  0  0
   11.5839   37.0190   31.6883 C   0  0  0  0  0  0  0  0  0  0  0  0
   13.4896   37.2168   33.3250 N   0  0  0  0  0  0  0  0  0  0  0  0
   11.6198   36.3067   30.4696 O   0  0  0  0  0  0  0  0  0  0  0  0
   14.4757   36.3266   33.5737 C   0  0  0  0  0  0  0  0  0  0  0  0
   13.1174   37.6309   34.5700 C   0  0  0  0  0  0  0  0  0  0  0  0
   15.2063   35.6141   32.6745 N   0  0  0  0  0  0  0  0  0  0  0  0
   14.6730   36.2269   34.9190 C   0  0  0  0  0  0  0  0  0  0  0  0
   13.8223   37.0451   35.5792 N   0  0  0  0  0  0  0  0  0  0  0  0
   16.1638   34.7597   33.1549 C   0  0  0  0  0  0  0  0  0  0  0  0
   15.6516   35.3490   35.4135 C   0  0  0  0  0  0  0  0  0  0  0  0
   16.3793   34.6311   34.5044 N   0  0  0  0  0  0  0  0  0  0  0  0
   15.9005   35.1931   36.8093 N   0  0  0  0  0  0  0  0  0  0  0  0
    9.9240   44.9792   32.1098 H   0  0  0  0  0  0  0  0  0  0  0  0
   11.0323   46.3018   34.5199 H   0  0  0  0  0  0  0  0  0  0  0  0
   10.9307   46.9030   32.9485 H   0  0  0  0  0  0  0  0  0  0  0  0
    8.6048   46.7723   33.6116 H   0  0  0  0  0  0  0  0  0  0  0  0
    8.5048   45.4538   34.8172 H   0  0  0  0  0  0  0  0  0  0  0  0
    4.7202   43.2912   33.6495 H   0  0  0  0  0  0  0  0  0  0  0  0
    4.9804   44.3276   32.2374 H   0  0  0  0  0  0  0  0  0  0  0  0
    6.1848   43.5160   30.2954 H   0  0  0  0  0  0  0  0  0  0  0  0
    6.6933   39.0603   32.4048 H   0  0  0  0  0  0  0  0  0  0  0  0
    6.9736   41.6010   28.9752 H   0  0  0  0  0  0  0  0  0  0  0  0
    7.2054   39.3729   30.0212 H   0  0  0  0  0  0  0  0  0  0  0  0
   11.3746   41.5530   31.4702 H   0  0  0  0  0  0  0  0  0  0  0  0
    9.8208   40.7167   31.7613 H   0  0  0  0  0  0  0  0  0  0  0  0
   11.7303   39.5342   30.3524 H   0  0  0  0  0  0  0  0  0  0  0  0
   10.1193   38.2684   32.6410 H   0  0  0  0  0  0  0  0  0  0  0  0
   13.6873   37.4721   31.2318 H   0  0  0  0  0  0  0  0  0  0  0  0
   10.0239   38.1806   29.7657 H   0  0  0  0  0  0  0  0  0  0  0  0
   11.2791   36.3128   32.4919 H   0  0  0  0  0  0  0  0  0  0  0  0
   11.9848   36.9112   29.7714 H   0  0  0  0  0  0  0  0  0  0  0  0
   12.3363   38.3597   34.7455 H   0  0  0  0  0  0  0  0  0  0  0  0
   16.7574   34.1796   32.4620 H   0  0  0  0  0  0  0  0  0  0  0  0
   15.3532   35.7351   37.5142 H   0  0  0  0  0  0  0  0  0  0  0  0
   16.6367   34.5316   37.1416 H   0  0  0  0  0  0  0  0  0  0  0  0
  1  2  2  0
  1  3  1  0
  3  4  1  0
  4  5  1  0
  6  1  1  0
  7  6  1  0
  6  8  1  0
  8  9  1  0
  9 10  1  0
  9 11  2  0
 10 12  1  0
 12 13  1  0
 13 14  2  0
 15 13  1  0
 14 16  1  0
 14 17  1  0
 18 15  2  0
 16 19  1  0
 16 20  2  0
 17 21  2  0
 21 18  1  0
  4 22  2  0
  4 23  1  0
 24 23  1  0
 24 25  1  0
 25 26  1  0
 25 27  1  0
 26 28  1  0
 27 29  1  0
 27 30  1  0
 30 28  1  0
 28 31  1  0
 30 32  1  0
 33 31  1  0
 34 31  1  0
 35 33  2  0
 33 36  1  0
 37 34  2  0
 38 35  1  0
 36 39  2  0
 36 37  1  0
 40 38  2  0
 40 39  1  0
 39 41  1  0
  6 42  1  6
  7 43  1  0
  7 44  1  0
  8 45  1  0
  8 46  1  0
 12 47  1  0
 12 48  1  0
 15 49  1  0
 17 50  1  0
 18 51  1  0
 21 52  1  0
 24 53  1  0
 24 54  1  0
 25 55  1  0
 27 56  1  0
 28 57  1  0
 29 58  1  0
 30 59  1  0
 32 60  1  0
 34 61  1  0
 38 62  1  0
 41 63  1  0
 41 64  1  0
M  CHG  3   5  -1  16   1  19  -1
M  END
>  <EmbedRMS>  (84) 
0.08585011062338448

$$$$

     RDKit          3D

 64 67  0  0  0  0  0  0  0  0999 V2000
   10.2811   43.7761   33.8097 C   0  0  0  0  0  0  0  0  0  0  0  0
   11.4072   43.5920   34.3591 O   0  0  0  0  0  0  0  0  0  0  0  0
    9.3698   42.7294   33.6981 O   0  0  0  0  0  0  0  0  0  0  0  0
    9.8864   41.2339   34.2846 P   0  0  0  0  0  5  0  0  0  0  0  0
   10.3661   41.4704   35.8750 O   0  0  0  0  0  1  0  0  0  0  0  0
    9.9501   45.1175   33.2492 C   0  0  2  0  0  0  0  0  0  0  0  0
   11.0751   46.0256   33.4793 N   0  0  0  0  0  0  0  0  0  0  0  0
    8.6570   45.6936   33.8689 C   0  0  0  0  0  0  0  0  0  0  0  0
    7.4397   44.9380   33.4312 C   0  0  0  0  0  0  0  0  0  0  0  0
    6.8437   44.0255   34.3106 O   0  0  0  0  0  0  0  0  0  0  0  0
    6.9791   45.1114   32.2697 O   0  0  0  0  0  0  0  0  0  0  0  0
    5.7482   43.1830   33.9504 C   0  0  0  0  0  0  0  0  0  0  0  0
    4.3995   43.8016   34.2654 C   0  0  0  0  0  0  0  0  0  0  0  0
    3.2288   42.9961   34.3234 C   0  0  0  0  0  0  0  0  0  0  0  0
    4.2848   45.1857   34.5157 C   0  0  0  0  0  0  0  0  0  0  0  0
    3.2657   41.5842   34.0437 N   0  0  0  0  0  4  0  0  0  0  0  0
    2.0010   43.5883   34.6719 C   0  0  0  0  0  0  0  0  0  0  0  0
    3.0530   45.7534   34.8434 C   0  0  0  0  0  0  0  0  0  0  0  0
    4.0241   41.0941   33.0060 O   0  0  0  0  0  1  0  0  0  0  0  0
    2.4803   40.8101   34.6292 O   0  0  0  0  0  0  0  0  0  0  0  0
    1.9151   44.9561   34.9272 C   0  0  0  0  0  0  0  0  0  0  0  0
    8.8079   40.1920   34.2087 O   0  0  0  0  0  0  0  0  0  0  0  0
   11.2376   40.7896   33.3690 O   0  0  0  0  0  0  0  0  0  0  0  0
   10.9157   40.6895   31.9961 C   0  0  0  0  0  0  0  0  0  0  0  0
   11.5270   39.3897   31.4372 C   0  0  0  0  0  0  0  0  0  0  0  0
   12.7508   39.0915   32.0836 O   0  0  0  0  0  0  0  0  0  0  0  0
   10.6121   38.1916   31.6452 C   0  0  0  0  0  0  0  0  0  0  0  0
   12.9429   37.6852   32.0294 C   0  0  0  0  0  0  0  0  0  0  0  0
    9.6069   38.0858   30.6603 O   0  0  0  0  0  0  0  0  0  0  0  0
   11.5844   37.0185   31.6879 C   0  0  0  0  0  0  0  0  0  0  0  0
   13.4898   37.2163   33.3249 N   0  0  0  0  0  0  0  0  0  0  0  0
   11.6200   36.3062   30.4693 O   0  0  0  0  0  0  0  0  0  0  0  0
   14.4759   36.3263   33.5738 C   0  0  0  0  0  0  0  0  0  0  0  0
   13.1175   37.6307   34.5698 C   0  0  0  0  0  0  0  0  0  0  0  0
   15.2065   35.6139   32.6746 N   0  0  0  0  0  0  0  0  0  0  0  0
   14.6731   36.2267   34.9190 C   0  0  0  0  0  0  0  0  0  0  0  0
   13.8224   37.0450   35.5792 N   0  0  0  0  0  0  0  0  0  0  0  0
   16.1640   34.7596   33.1551 C   0  0  0  0  0  0  0  0  0  0  0  0
   15.6517   35.3489   35.4136 C   0  0  0  0  0  0  0  0  0  0  0  0
   16.3795   34.6310   34.5046 N   0  0  0  0  0  0  0  0  0  0  0  0
   15.9006   35.1931   36.8094 N   0  0  0  0  0  0  0  0  0  0  0  0
    9.8121   45.0036   32.1507 H   0  0  0  0  0  0  0  0  0  0  0  0
   10.9070   46.9083   32.9436 H   0  0  0  0  0  0  0  0  0  0  0  0
   11.1181   46.2823   34.4935 H   0  0  0  0  0  0  0  0  0  0  0  0
    8.7251   45.6772   34.9789 H   0  0  0  0  0  0  0  0  0  0  0  0
    8.5367   46.7542   33.5583 H   0  0  0  0  0  0  0  0  0  0  0  0
    5.8042   42.9199   32.8722 H   0  0  0  0  0  0  0  0  0  0  0  0
    5.8534   42.2442   34.5340 H   0  0  0  0  0  0  0  0  0  0  0  0
    5.1443   45.8387   34.4741 H   0  0  0  0  0  0  0  0  0  0  0  0
    1.1007   42.9893   34.7272 H   0  0  0  0  0  0  0  0  0  0  0  0
    2.9824   46.8158   35.0385 H   0  0  0  0  0  0  0  0  0  0  0  0
    0.9620   45.3996   35.1852 H   0  0  0  0  0  0  0  0  0  0  0  0
    9.8255   40.7189   31.7591 H   0  0  0  0  0  0  0  0  0  0  0  0
   11.3826   41.5525   31.4749 H   0  0  0  0  0  0  0  0  0  0  0  0
   11.7317   39.5338   30.3518 H   0  0  0  0  0  0  0  0  0  0  0  0
   10.1214   38.2683   32.6413 H   0  0  0  0  0  0  0  0  0  0  0  0
   13.6881   37.4705   31.2318 H   0  0  0  0  0  0  0  0  0  0  0  0
   10.0255   38.1751   29.7656 H   0  0  0  0  0  0  0  0  0  0  0  0
   11.2795   36.3123   32.4915 H   0  0  0  0  0  0  0  0  0  0  0  0
   11.9870   36.9099   29.7714 H   0  0  0  0  0  0  0  0  0  0  0  0
   12.3365   38.3595   34.7453 H   0  0  0  0  0  0  0  0  0  0  0  0
   16.7576   34.1794   32.4622 H   0  0  0  0  0  0  0  0  0  0  0  0
   16.6368   34.5316   37.1418 H   0  0  0  0  0  0  0  0  0  0  0  0
   15.3532   35.7351   37.5143 H   0  0  0  0  0  0  0  0  0  0  0  0
  1  2  2  0
  1  3  1  0
  3  4  1  0
  4  5  1  0
  6  1  1  0
  7  6  1  0
  6  8  1  0
  8  9  1  0
  9 10  1  0
  9 11  2  0
 10 12  1  0
 12 13  1  0
 13 14  2  0
 15 13  1  0
 14 16  1  0
 14 17  1  0
 18 15  2  0
 16 19  1  0
 16 20  2  0
 17 21  2  0
 21 18  1  0
  4 22  2  0
  4 23  1  0
 24 23  1  0
 24 25  1  0
 25 26  1  0
 25 27  1  0
 26 28  1  0
 27 29  1  0
 27 30  1  0
 30 28  1  0
 28 31  1  0
 30 32  1  0
 33 31  1  0
 34 31  1  0
 35 33  2  0
 33 36  1  0
 37 34  2  0
 38 35  1  0
 36 39  2  0
 36 37  1  0
 40 38  2  0
 40 39  1  0
 39 41  1  0
  6 42  1  6
  7 43  1  0
  7 44  1  0
  8 45  1  0
  8 46  1  0
 12 47  1  0
 12 48  1  0
 15 49  1  0
 17 50  1  0
 18 51  1  0
 21 52  1  0
 24 53  1  0
 24 54  1  0
 25 55  1  0
 27 56  1  0
 28 57  1  0
 29 58  1  0
 30 59  1  0
 32 60  1  0
 34 61  1  0
 38 62  1  0
 41 63  1  0
 41 64  1  0
M  CHG  3   5  -1  16   1  19  -1
M  END
>  <EmbedRMS>  (85) 
0.0871188147766732

$$$$

     RDKit          3D

 64 67  0  0  0  0  0  0  0  0999 V2000
   10.2824   43.7726   33.8133 C   0  0  0  0  0  0  0  0  0  0  0  0
   11.4067   43.5833   34.3643 O   0  0  0  0  0  0  0  0  0  0  0  0
    9.3687   42.7289   33.6990 O   0  0  0  0  0  0  0  0  0  0  0  0
    9.8853   41.2325   34.2842 P   0  0  0  0  0  5  0  0  0  0  0  0
   10.3652   41.4684   35.8749 O   0  0  0  0  0  1  0  0  0  0  0  0
    9.9559   45.1188   33.2540 C   0  0  2  0  0  0  0  0  0  0  0  0
   11.0719   46.0427   33.4670 N   0  0  0  0  0  0  0  0  0  0  0  0
    8.6826   45.7104   33.8928 C   0  0  0  0  0  0  0  0  0  0  0  0
    7.4253   45.0379   33.4015 C   0  0  0  0  0  0  0  0  0  0  0  0
    6.8108   45.3811   32.1900 O   0  0  0  0  0  0  0  0  0  0  0  0
    6.9162   44.1173   34.0937 O   0  0  0  0  0  0  0  0  0  0  0  0
    7.1934   46.4915   31.3793 C   0  0  0  0  0  0  0  0  0  0  0  0
    6.3675   46.5442   30.1143 C   0  0  0  0  0  0  0  0  0  0  0  0
    6.0943   47.7732   29.4569 C   0  0  0  0  0  0  0  0  0  0  0  0
    5.8842   45.3464   29.5510 C   0  0  0  0  0  0  0  0  0  0  0  0
    6.6514   49.0163   29.9189 N   0  0  0  0  0  4  0  0  0  0  0  0
    5.2741   47.7742   28.3139 C   0  0  0  0  0  0  0  0  0  0  0  0
    5.0881   45.3677   28.4050 C   0  0  0  0  0  0  0  0  0  0  0  0
    7.9651   49.0818   30.3227 O   0  0  0  0  0  1  0  0  0  0  0  0
    6.0123   50.0796   29.7779 O   0  0  0  0  0  0  0  0  0  0  0  0
    4.7735   46.5799   27.7949 C   0  0  0  0  0  0  0  0  0  0  0  0
    8.8074   40.1902   34.2080 O   0  0  0  0  0  0  0  0  0  0  0  0
   11.2372   40.7892   33.3689 O   0  0  0  0  0  0  0  0  0  0  0  0
   10.9158   40.6896   31.9958 C   0  0  0  0  0  0  0  0  0  0  0  0
   11.5271   39.3897   31.4371 C   0  0  0  0  0  0  0  0  0  0  0  0
   12.7509   39.0915   32.0836 O   0  0  0  0  0  0  0  0  0  0  0  0
   10.6122   38.1916   31.6451 C   0  0  0  0  0  0  0  0  0  0  0  0
   12.9429   37.6851   32.0294 C   0  0  0  0  0  0  0  0  0  0  0  0
    9.6069   38.0858   30.6602 O   0  0  0  0  0  0  0  0  0  0  0  0
   11.5844   37.0185   31.6879 C   0  0  0  0  0  0  0  0  0  0  0  0
   13.4899   37.2163   33.3249 N   0  0  0  0  0  0  0  0  0  0  0  0
   11.6201   36.3062   30.4692 O   0  0  0  0  0  0  0  0  0  0  0  0
   14.4759   36.3263   33.5738 C   0  0  0  0  0  0  0  0  0  0  0  0
   13.1175   37.6307   34.5698 C   0  0  0  0  0  0  0  0  0  0  0  0
   15.2065   35.6139   32.6746 N   0  0  0  0  0  0  0  0  0  0  0  0
   14.6731   36.2267   34.9190 C   0  0  0  0  0  0  0  0  0  0  0  0
   13.8224   37.0450   35.5792 N   0  0  0  0  0  0  0  0  0  0  0  0
   16.1640   34.7596   33.1551 C   0  0  0  0  0  0  0  0  0  0  0  0
   15.6517   35.3489   35.4136 C   0  0  0  0  0  0  0  0  0  0  0  0
   16.3795   34.6310   34.5046 N   0  0  0  0  0  0  0  0  0  0  0  0
   15.9006   35.1931   36.8094 N   0  0  0  0  0  0  0  0  0  0  0  0
    9.8033   45.0061   32.1591 H   0  0  0  0  0  0  0  0  0  0  0  0
   11.9208   45.6869   32.9687 H   0  0  0  0  0  0  0  0  0  0  0  0
   11.2911   46.1162   34.4883 H   0  0  0  0  0  0  0  0  0  0  0  0
    8.6235   46.7962   33.6681 H   0  0  0  0  0  0  0  0  0  0  0  0
    8.7432   45.6237   35.0005 H   0  0  0  0  0  0  0  0  0  0  0  0
    8.2628   46.4090   31.0965 H   0  0  0  0  0  0  0  0  0  0  0  0
    7.0362   47.4168   31.9728 H   0  0  0  0  0  0  0  0  0  0  0  0
    6.1135   44.3895   30.0028 H   0  0  0  0  0  0  0  0  0  0  0  0
    5.0447   48.7024   27.8058 H   0  0  0  0  0  0  0  0  0  0  0  0
    4.7125   44.4411   27.9903 H   0  0  0  0  0  0  0  0  0  0  0  0
    4.1535   46.5935   26.9077 H   0  0  0  0  0  0  0  0  0  0  0  0
    9.8258   40.7193   31.7583 H   0  0  0  0  0  0  0  0  0  0  0  0
   11.3832   41.5525   31.4750 H   0  0  0  0  0  0  0  0  0  0  0  0
   11.7319   39.5337   30.3517 H   0  0  0  0  0  0  0  0  0  0  0  0
   10.1215   38.2683   32.6412 H   0  0  0  0  0  0  0  0  0  0  0  0
   13.6882   37.4705   31.2318 H   0  0  0  0  0  0  0  0  0  0  0  0
   10.0255   38.1751   29.7655 H   0  0  0  0  0  0  0  0  0  0  0  0
   11.2795   36.3123   32.4915 H   0  0  0  0  0  0  0  0  0  0  0  0
   11.9871   36.9098   29.7714 H   0  0  0  0  0  0  0  0  0  0  0  0
   12.3365   38.3595   34.7453 H   0  0  0  0  0  0  0  0  0  0  0  0
   16.7577   34.1794   32.4622 H   0  0  0  0  0  0  0  0  0  0  0  0
   16.6368   34.5316   37.1418 H   0  0  0  0  0  0  0  0  0  0  0  0
   15.3532   35.7351   37.5143 H   0  0  0  0  0  0  0  0  0  0  0  0
  1  2  2  0
  1  3  1  0
  3  4  1  0
  4  5  1  0
  6  1  1  0
  7  6  1  0
  6  8  1  0
  8  9  1  0
  9 10  1  0
  9 11  2  0
 10 12  1  0
 12 13  1  0
 13 14  2  0
 15 13  1  0
 14 16  1  0
 14 17  1  0
 18 15  2  0
 16 19  1  0
 16 20  2  0
 17 21  2  0
 21 18  1  0
  4 22  2  0
  4 23  1  0
 24 23  1  0
 24 25  1  0
 25 26  1  0
 25 27  1  0
 26 28  1  0
 27 29  1  0
 27 30  1  0
 30 28  1  0
 28 31  1  0
 30 32  1  0
 33 31  1  0
 34 31  1  0
 35 33  2  0
 33 36  1  0
 37 34  2  0
 38 35  1  0
 36 39  2  0
 36 37  1  0
 40 38  2  0
 40 39  1  0
 39 41  1  0
  6 42  1  6
  7 43  1  0
  7 44  1  0
  8 45  1  0
  8 46  1  0
 12 47  1  0
 12 48  1  0
 15 49  1  0
 17 50  1  0
 18 51  1  0
 21 52  1  0
 24 53  1  0
 24 54  1  0
 25 55  1  0
 27 56  1  0
 28 57  1  0
 29 58  1  0
 30 59  1  0
 32 60  1  0
 34 61  1  0
 38 62  1  0
 41 63  1  0
 41 64  1  0
M  CHG  3   5  -1  16   1  19  -1
M  END
>  <EmbedRMS>  (86) 
0.0877449131941817

$$$$

     RDKit          3D

 64 67  0  0  0  0  0  0  0  0999 V2000
   10.2852   43.7723   33.8062 C   0  0  0  0  0  0  0  0  0  0  0  0
   11.4107   43.5873   34.3560 O   0  0  0  0  0  0  0  0  0  0  0  0
    9.3668   42.7311   33.7009 O   0  0  0  0  0  0  0  0  0  0  0  0
    9.8856   41.2340   34.2841 P   0  0  0  0  0  5  0  0  0  0  0  0
   10.3656   41.4697   35.8748 O   0  0  0  0  0  1  0  0  0  0  0  0
    9.9578   45.1109   33.2446 C   0  0  2  0  0  0  0  0  0  0  0  0
   11.0676   46.0364   33.4848 N   0  0  0  0  0  0  0  0  0  0  0  0
    8.6206   45.6580   33.7937 C   0  0  0  0  0  0  0  0  0  0  0  0
    8.6128   45.7980   35.2873 C   0  0  0  0  0  0  0  0  0  0  0  0
    8.9639   47.0227   35.8656 O   0  0  0  0  0  0  0  0  0  0  0  0
    8.3149   44.8064   36.0069 O   0  0  0  0  0  0  0  0  0  0  0  0
    9.0264   47.2389   37.2746 C   0  0  0  0  0  0  0  0  0  0  0  0
    7.6461   47.1934   37.8901 C   0  0  0  0  0  0  0  0  0  0  0  0
    7.3428   46.4152   39.0378 C   0  0  0  0  0  0  0  0  0  0  0  0
    6.6556   48.0361   37.3536 C   0  0  0  0  0  0  0  0  0  0  0  0
    8.3066   45.5312   39.6291 N   0  0  0  0  0  4  0  0  0  0  0  0
    6.0647   46.5100   39.6155 C   0  0  0  0  0  0  0  0  0  0  0  0
    5.3868   48.1036   37.9308 C   0  0  0  0  0  0  0  0  0  0  0  0
    8.8941   44.5474   38.8683 O   0  0  0  0  0  1  0  0  0  0  0  0
    8.4225   45.4814   40.8710 O   0  0  0  0  0  0  0  0  0  0  0  0
    5.0928   47.3443   39.0617 C   0  0  0  0  0  0  0  0  0  0  0  0
    8.8082   40.1910   34.2081 O   0  0  0  0  0  0  0  0  0  0  0  0
   11.2384   40.7903   33.3688 O   0  0  0  0  0  0  0  0  0  0  0  0
   10.9193   40.6895   31.9950 C   0  0  0  0  0  0  0  0  0  0  0  0
   11.5171   39.3801   31.4398 C   0  0  0  0  0  0  0  0  0  0  0  0
   12.7478   39.0862   32.0734 O   0  0  0  0  0  0  0  0  0  0  0  0
   10.6031   38.1891   31.6667 C   0  0  0  0  0  0  0  0  0  0  0  0
   12.9335   37.6797   32.0280 C   0  0  0  0  0  0  0  0  0  0  0  0
    9.6397   38.0777   30.6456 O   0  0  0  0  0  0  0  0  0  0  0  0
   11.5739   37.0154   31.7057 C   0  0  0  0  0  0  0  0  0  0  0  0
   13.4903   37.2178   33.3231 N   0  0  0  0  0  0  0  0  0  0  0  0
   11.6211   36.3376   30.4695 O   0  0  0  0  0  0  0  0  0  0  0  0
   14.4761   36.3273   33.5725 C   0  0  0  0  0  0  0  0  0  0  0  0
   13.1179   37.6316   34.5684 C   0  0  0  0  0  0  0  0  0  0  0  0
   15.2063   35.6139   32.6737 N   0  0  0  0  0  0  0  0  0  0  0  0
   14.6733   36.2277   34.9180 C   0  0  0  0  0  0  0  0  0  0  0  0
   13.8225   37.0459   35.5779 N   0  0  0  0  0  0  0  0  0  0  0  0
   16.1636   34.7594   33.1546 C   0  0  0  0  0  0  0  0  0  0  0  0
   15.6515   35.3494   35.4129 C   0  0  0  0  0  0  0  0  0  0  0  0
   16.3791   34.6311   34.5041 N   0  0  0  0  0  0  0  0  0  0  0  0
   15.9001   35.1935   36.8088 N   0  0  0  0  0  0  0  0  0  0  0  0
    9.8464   44.9850   32.1453 H   0  0  0  0  0  0  0  0  0  0  0  0
   10.8540   46.9452   33.0130 H   0  0  0  0  0  0  0  0  0  0  0  0
   11.1600   46.2309   34.5084 H   0  0  0  0  0  0  0  0  0  0  0  0
    7.7909   44.9838   33.4874 H   0  0  0  0  0  0  0  0  0  0  0  0
    8.4138   46.6496   33.3366 H   0  0  0  0  0  0  0  0  0  0  0  0
    9.7344   46.5181   37.7268 H   0  0  0  0  0  0  0  0  0  0  0  0
    9.4510   48.2490   37.4534 H   0  0  0  0  0  0  0  0  0  0  0  0
    6.8717   48.6528   36.4895 H   0  0  0  0  0  0  0  0  0  0  0  0
    5.8174   45.9223   40.4907 H   0  0  0  0  0  0  0  0  0  0  0  0
    4.6334   48.7546   37.5062 H   0  0  0  0  0  0  0  0  0  0  0  0
    4.1099   47.4024   39.5113 H   0  0  0  0  0  0  0  0  0  0  0  0
    9.8315   40.7396   31.7550 H   0  0  0  0  0  0  0  0  0  0  0  0
   11.4009   41.5438   31.4730 H   0  0  0  0  0  0  0  0  0  0  0  0
   11.6982   39.5044   30.3472 H   0  0  0  0  0  0  0  0  0  0  0  0
   10.1089   38.2631   32.6650 H   0  0  0  0  0  0  0  0  0  0  0  0
   13.6656   37.4541   31.2207 H   0  0  0  0  0  0  0  0  0  0  0  0
    8.8965   38.6900   30.8852 H   0  0  0  0  0  0  0  0  0  0  0  0
   11.2846   36.3060   32.5175 H   0  0  0  0  0  0  0  0  0  0  0  0
   10.8523   35.7095   30.4590 H   0  0  0  0  0  0  0  0  0  0  0  0
   12.3353   38.3588   34.7440 H   0  0  0  0  0  0  0  0  0  0  0  0
   16.7570   34.1788   32.4619 H   0  0  0  0  0  0  0  0  0  0  0  0
   15.3529   35.7359   37.5136 H   0  0  0  0  0  0  0  0  0  0  0  0
   16.6360   34.5317   37.1413 H   0  0  0  0  0  0  0  0  0  0  0  0
  1  2  2  0
  1  3  1  0
  3  4  1  0
  4  5  1  0
  6  1  1  0
  7  6  1  0
  6  8  1  0
  8  9  1  0
  9 10  1  0
  9 11  2  0
 10 12  1  0
 12 13  1  0
 13 14  2  0
 15 13  1  0
 14 16  1  0
 14 17  1  0
 18 15  2  0
 16 19  1  0
 16 20  2  0
 17 21  2  0
 21 18  1  0
  4 22  2  0
  4 23  1  0
 24 23  1  0
 24 25  1  0
 25 26  1  0
 25 27  1  0
 26 28  1  0
 27 29  1  0
 27 30  1  0
 30 28  1  0
 28 31  1  0
 30 32  1  0
 33 31  1  0
 34 31  1  0
 35 33  2  0
 33 36  1  0
 37 34  2  0
 38 35  1  0
 36 39  2  0
 36 37  1  0
 40 38  2  0
 40 39  1  0
 39 41  1  0
  6 42  1  6
  7 43  1  0
  7 44  1  0
  8 45  1  0
  8 46  1  0
 12 47  1  0
 12 48  1  0
 15 49  1  0
 17 50  1  0
 18 51  1  0
 21 52  1  0
 24 53  1  0
 24 54  1  0
 25 55  1  0
 27 56  1  0
 28 57  1  0
 29 58  1  0
 30 59  1  0
 32 60  1  0
 34 61  1  0
 38 62  1  0
 41 63  1  0
 41 64  1  0
M  CHG  3   5  -1  16   1  19  -1
M  END
>  <EmbedRMS>  (87) 
0.08932422276875564

$$$$

     RDKit          3D

 64 67  0  0  0  0  0  0  0  0999 V2000
   10.2812   43.7752   33.8089 C   0  0  0  0  0  0  0  0  0  0  0  0
   11.4048   43.5910   34.3636 O   0  0  0  0  0  0  0  0  0  0  0  0
    9.3684   42.7299   33.6978 O   0  0  0  0  0  0  0  0  0  0  0  0
    9.8867   41.2337   34.2827 P   0  0  0  0  0  5  0  0  0  0  0  0
   10.3655   41.4696   35.8737 O   0  0  0  0  0  1  0  0  0  0  0  0
    9.9440   45.1228   33.2646 C   0  0  2  0  0  0  0  0  0  0  0  0
   11.0818   46.0221   33.4640 N   0  0  0  0  0  0  0  0  0  0  0  0
    8.7029   45.7050   33.9738 C   0  0  0  0  0  0  0  0  0  0  0  0
    7.4434   44.9733   33.6180 C   0  0  0  0  0  0  0  0  0  0  0  0
    7.0488   44.8933   32.2800 O   0  0  0  0  0  0  0  0  0  0  0  0
    6.7430   44.4505   34.5275 O   0  0  0  0  0  0  0  0  0  0  0  0
    5.8273   44.2870   31.8696 C   0  0  0  0  0  0  0  0  0  0  0  0
    5.7749   44.2336   30.3633 C   0  0  0  0  0  0  0  0  0  0  0  0
    6.7691   43.5636   29.5990 C   0  0  0  0  0  0  0  0  0  0  0  0
    4.7412   44.9167   29.6962 C   0  0  0  0  0  0  0  0  0  0  0  0
    7.8450   42.8359   30.2179 N   0  0  0  0  0  4  0  0  0  0  0  0
    6.7107   43.6243   28.1956 C   0  0  0  0  0  0  0  0  0  0  0  0
    4.6929   44.9492   28.3019 C   0  0  0  0  0  0  0  0  0  0  0  0
    9.0687   42.7555   29.5939 O   0  0  0  0  0  1  0  0  0  0  0  0
    7.6368   42.1268   31.2229 O   0  0  0  0  0  0  0  0  0  0  0  0
    5.6780   44.3084   27.5533 C   0  0  0  0  0  0  0  0  0  0  0  0
    8.8089   40.1912   34.2065 O   0  0  0  0  0  0  0  0  0  0  0  0
   11.2399   40.7898   33.3684 O   0  0  0  0  0  0  0  0  0  0  0  0
   10.9208   40.6886   31.9948 C   0  0  0  0  0  0  0  0  0  0  0  0
   11.5182   39.3799   31.4394 C   0  0  0  0  0  0  0  0  0  0  0  0
   12.7486   39.0858   32.0731 O   0  0  0  0  0  0  0  0  0  0  0  0
   10.6035   38.1892   31.6662 C   0  0  0  0  0  0  0  0  0  0  0  0
   12.9337   37.6793   32.0279 C   0  0  0  0  0  0  0  0  0  0  0  0
    9.6399   38.0782   30.6453 O   0  0  0  0  0  0  0  0  0  0  0  0
   11.5739   37.0153   31.7056 C   0  0  0  0  0  0  0  0  0  0  0  0
   13.4903   37.2175   33.3231 N   0  0  0  0  0  0  0  0  0  0  0  0
   11.6210   36.3375   30.4694 O   0  0  0  0  0  0  0  0  0  0  0  0
   14.4762   36.3272   33.5725 C   0  0  0  0  0  0  0  0  0  0  0  0
   13.1178   37.6315   34.5683 C   0  0  0  0  0  0  0  0  0  0  0  0
   15.2064   35.6138   32.6738 N   0  0  0  0  0  0  0  0  0  0  0  0
   14.6734   36.2277   34.9180 C   0  0  0  0  0  0  0  0  0  0  0  0
   13.8225   37.0458   35.5779 N   0  0  0  0  0  0  0  0  0  0  0  0
   16.1637   34.7594   33.1546 C   0  0  0  0  0  0  0  0  0  0  0  0
   15.6516   35.3494   35.4130 C   0  0  0  0  0  0  0  0  0  0  0  0
   16.3791   34.6311   34.5041 N   0  0  0  0  0  0  0  0  0  0  0  0
   15.9001   35.1935   36.8088 N   0  0  0  0  0  0  0  0  0  0  0  0
    9.7422   45.0278   32.1732 H   0  0  0  0  0  0  0  0  0  0  0  0
   11.8811   45.6776   32.8822 H   0  0  0  0  0  0  0  0  0  0  0  0
   10.8389   46.9594   33.0677 H   0  0  0  0  0  0  0  0  0  0  0  0
    8.8565   45.6914   35.0761 H   0  0  0  0  0  0  0  0  0  0  0  0
    8.5651   46.7653   33.6712 H   0  0  0  0  0  0  0  0  0  0  0  0
    4.9796   44.8781   32.2802 H   0  0  0  0  0  0  0  0  0  0  0  0
    5.7401   43.2616   32.2860 H   0  0  0  0  0  0  0  0  0  0  0  0
    3.9733   45.4371   30.2553 H   0  0  0  0  0  0  0  0  0  0  0  0
    7.4600   43.1245   27.5948 H   0  0  0  0  0  0  0  0  0  0  0  0
    3.8935   45.4798   27.8009 H   0  0  0  0  0  0  0  0  0  0  0  0
    5.6406   44.3395   26.4720 H   0  0  0  0  0  0  0  0  0  0  0  0
   11.3987   41.5442   31.4717 H   0  0  0  0  0  0  0  0  0  0  0  0
    9.8340   40.7324   31.7567 H   0  0  0  0  0  0  0  0  0  0  0  0
   11.6993   39.5044   30.3468 H   0  0  0  0  0  0  0  0  0  0  0  0
   10.1091   38.2635   32.6644 H   0  0  0  0  0  0  0  0  0  0  0  0
   13.6658   37.4534   31.2207 H   0  0  0  0  0  0  0  0  0  0  0  0
    8.8995   38.6950   30.8818 H   0  0  0  0  0  0  0  0  0  0  0  0
   11.2843   36.3061   32.5174 H   0  0  0  0  0  0  0  0  0  0  0  0
   10.8520   35.7097   30.4587 H   0  0  0  0  0  0  0  0  0  0  0  0
   12.3352   38.3587   34.7438 H   0  0  0  0  0  0  0  0  0  0  0  0
   16.7571   34.1787   32.4619 H   0  0  0  0  0  0  0  0  0  0  0  0
   16.6360   34.5317   37.1414 H   0  0  0  0  0  0  0  0  0  0  0  0
   15.3529   35.7359   37.5137 H   0  0  0  0  0  0  0  0  0  0  0  0
  1  2  2  0
  1  3  1  0
  3  4  1  0
  4  5  1  0
  6  1  1  0
  7  6  1  0
  6  8  1  0
  8  9  1  0
  9 10  1  0
  9 11  2  0
 10 12  1  0
 12 13  1  0
 13 14  2  0
 15 13  1  0
 14 16  1  0
 14 17  1  0
 18 15  2  0
 16 19  1  0
 16 20  2  0
 17 21  2  0
 21 18  1  0
  4 22  2  0
  4 23  1  0
 24 23  1  0
 24 25  1  0
 25 26  1  0
 25 27  1  0
 26 28  1  0
 27 29  1  0
 27 30  1  0
 30 28  1  0
 28 31  1  0
 30 32  1  0
 33 31  1  0
 34 31  1  0
 35 33  2  0
 33 36  1  0
 37 34  2  0
 38 35  1  0
 36 39  2  0
 36 37  1  0
 40 38  2  0
 40 39  1  0
 39 41  1  0
  6 42  1  6
  7 43  1  0
  7 44  1  0
  8 45  1  0
  8 46  1  0
 12 47  1  0
 12 48  1  0
 15 49  1  0
 17 50  1  0
 18 51  1  0
 21 52  1  0
 24 53  1  0
 24 54  1  0
 25 55  1  0
 27 56  1  0
 28 57  1  0
 29 58  1  0
 30 59  1  0
 32 60  1  0
 34 61  1  0
 38 62  1  0
 41 63  1  0
 41 64  1  0
M  CHG  3   5  -1  16   1  19  -1
M  END
>  <EmbedRMS>  (88) 
0.08988769668754293

$$$$

     RDKit          3D

 64 67  0  0  0  0  0  0  0  0999 V2000
   10.2845   43.7742   33.8067 C   0  0  0  0  0  0  0  0  0  0  0  0
   11.4069   43.5901   34.3636 O   0  0  0  0  0  0  0  0  0  0  0  0
    9.3680   42.7311   33.6987 O   0  0  0  0  0  0  0  0  0  0  0  0
    9.8859   41.2341   34.2835 P   0  0  0  0  0  5  0  0  0  0  0  0
   10.3663   41.4697   35.8740 O   0  0  0  0  0  1  0  0  0  0  0  0
    9.9494   45.1164   33.2548 C   0  0  2  0  0  0  0  0  0  0  0  0
   11.0751   46.0281   33.4732 N   0  0  0  0  0  0  0  0  0  0  0  0
    8.6780   45.6529   33.9431 C   0  0  0  0  0  0  0  0  0  0  0  0
    8.1858   46.9163   33.3060 C   0  0  0  0  0  0  0  0  0  0  0  0
    8.2414   48.1178   34.0221 O   0  0  0  0  0  0  0  0  0  0  0  0
    7.7263   46.8874   32.1314 O   0  0  0  0  0  0  0  0  0  0  0  0
    7.8156   49.3676   33.4796 C   0  0  0  0  0  0  0  0  0  0  0  0
    8.7929   49.8619   32.4357 C   0  0  0  0  0  0  0  0  0  0  0  0
    8.3714   50.3937   31.1883 C   0  0  0  0  0  0  0  0  0  0  0  0
   10.1696   49.7858   32.7160 C   0  0  0  0  0  0  0  0  0  0  0  0
    6.9839   50.6036   30.8826 N   0  0  0  0  0  4  0  0  0  0  0  0
    9.3373   50.7461   30.2301 C   0  0  0  0  0  0  0  0  0  0  0  0
   11.1139   50.1594   31.7590 C   0  0  0  0  0  0  0  0  0  0  0  0
    6.5310   50.4159   29.5970 O   0  0  0  0  0  1  0  0  0  0  0  0
    6.2417   51.1803   31.7040 O   0  0  0  0  0  0  0  0  0  0  0  0
   10.6986   50.6269   30.5136 C   0  0  0  0  0  0  0  0  0  0  0  0
    8.8081   40.1914   34.2081 O   0  0  0  0  0  0  0  0  0  0  0  0
   11.2374   40.7899   33.3677 O   0  0  0  0  0  0  0  0  0  0  0  0
   10.9156   40.6881   31.9946 C   0  0  0  0  0  0  0  0  0  0  0  0
   11.5262   39.3870   31.4363 C   0  0  0  0  0  0  0  0  0  0  0  0
   12.7492   39.0892   32.0818 O   0  0  0  0  0  0  0  0  0  0  0  0
   10.6123   38.1893   31.6461 C   0  0  0  0  0  0  0  0  0  0  0  0
   12.9374   37.6826   32.0301 C   0  0  0  0  0  0  0  0  0  0  0  0
    9.6150   38.0838   30.6538 O   0  0  0  0  0  0  0  0  0  0  0  0
   11.5793   37.0136   31.7014 C   0  0  0  0  0  0  0  0  0  0  0  0
   13.4906   37.2169   33.3242 N   0  0  0  0  0  0  0  0  0  0  0  0
   11.6216   36.3252   30.4725 O   0  0  0  0  0  0  0  0  0  0  0  0
   14.4763   36.3266   33.5731 C   0  0  0  0  0  0  0  0  0  0  0  0
   13.1181   37.6308   34.5694 C   0  0  0  0  0  0  0  0  0  0  0  0
   15.2066   35.6137   32.6740 N   0  0  0  0  0  0  0  0  0  0  0  0
   14.6736   36.2270   34.9185 C   0  0  0  0  0  0  0  0  0  0  0  0
   13.8229   37.0451   35.5787 N   0  0  0  0  0  0  0  0  0  0  0  0
   16.1639   34.7593   33.1547 C   0  0  0  0  0  0  0  0  0  0  0  0
   15.6519   35.3489   35.4132 C   0  0  0  0  0  0  0  0  0  0  0  0
   16.3795   34.6308   34.5042 N   0  0  0  0  0  0  0  0  0  0  0  0
   15.9006   35.1931   36.8090 N   0  0  0  0  0  0  0  0  0  0  0  0
    9.7643   45.0045   32.1623 H   0  0  0  0  0  0  0  0  0  0  0  0
   11.8970   45.6746   32.9298 H   0  0  0  0  0  0  0  0  0  0  0  0
   10.8459   46.9510   33.0404 H   0  0  0  0  0  0  0  0  0  0  0  0
    7.8626   44.8997   33.8781 H   0  0  0  0  0  0  0  0  0  0  0  0
    8.8831   45.8364   35.0208 H   0  0  0  0  0  0  0  0  0  0  0  0
    6.7911   49.2396   33.0749 H   0  0  0  0  0  0  0  0  0  0  0  0
    7.7671   50.1142   34.2995 H   0  0  0  0  0  0  0  0  0  0  0  0
   10.5143   49.4175   33.6746 H   0  0  0  0  0  0  0  0  0  0  0  0
    9.0343   51.1419   29.2689 H   0  0  0  0  0  0  0  0  0  0  0  0
   12.1701   50.0806   31.9821 H   0  0  0  0  0  0  0  0  0  0  0  0
   11.4327   50.9125   29.7714 H   0  0  0  0  0  0  0  0  0  0  0  0
    9.8255   40.7181   31.7577 H   0  0  0  0  0  0  0  0  0  0  0  0
   11.3830   41.5502   31.4724 H   0  0  0  0  0  0  0  0  0  0  0  0
   11.7292   39.5285   30.3502 H   0  0  0  0  0  0  0  0  0  0  0  0
   10.1140   38.2719   32.6379 H   0  0  0  0  0  0  0  0  0  0  0  0
   13.6726   37.4635   31.2240 H   0  0  0  0  0  0  0  0  0  0  0  0
   10.0535   38.1084   29.7638 H   0  0  0  0  0  0  0  0  0  0  0  0
   11.2645   36.3134   32.5107 H   0  0  0  0  0  0  0  0  0  0  0  0
   12.1549   35.5032   30.6315 H   0  0  0  0  0  0  0  0  0  0  0  0
   12.3362   38.3586   34.7450 H   0  0  0  0  0  0  0  0  0  0  0  0
   16.7574   34.1788   32.4619 H   0  0  0  0  0  0  0  0  0  0  0  0
   16.6366   34.5314   37.1415 H   0  0  0  0  0  0  0  0  0  0  0  0
   15.3533   35.7353   37.5139 H   0  0  0  0  0  0  0  0  0  0  0  0
  1  2  2  0
  1  3  1  0
  3  4  1  0
  4  5  1  0
  6  1  1  0
  7  6  1  0
  6  8  1  0
  8  9  1  0
  9 10  1  0
  9 11  2  0
 10 12  1  0
 12 13  1  0
 13 14  2  0
 15 13  1  0
 14 16  1  0
 14 17  1  0
 18 15  2  0
 16 19  1  0
 16 20  2  0
 17 21  2  0
 21 18  1  0
  4 22  2  0
  4 23  1  0
 24 23  1  0
 24 25  1  0
 25 26  1  0
 25 27  1  0
 26 28  1  0
 27 29  1  0
 27 30  1  0
 30 28  1  0
 28 31  1  0
 30 32  1  0
 33 31  1  0
 34 31  1  0
 35 33  2  0
 33 36  1  0
 37 34  2  0
 38 35  1  0
 36 39  2  0
 36 37  1  0
 40 38  2  0
 40 39  1  0
 39 41  1  0
  6 42  1  6
  7 43  1  0
  7 44  1  0
  8 45  1  0
  8 46  1  0
 12 47  1  0
 12 48  1  0
 15 49  1  0
 17 50  1  0
 18 51  1  0
 21 52  1  0
 24 53  1  0
 24 54  1  0
 25 55  1  0
 27 56  1  0
 28 57  1  0
 29 58  1  0
 30 59  1  0
 32 60  1  0
 34 61  1  0
 38 62  1  0
 41 63  1  0
 41 64  1  0
M  CHG  3   5  -1  16   1  19  -1
M  END
>  <EmbedRMS>  (89) 
0.0879967234008074

$$$$

     RDKit          3D

 64 67  0  0  0  0  0  0  0  0999 V2000
   10.2859   43.7721   33.8048 C   0  0  0  0  0  0  0  0  0  0  0  0
   11.4084   43.5885   34.3611 O   0  0  0  0  0  0  0  0  0  0  0  0
    9.3672   42.7311   33.6995 O   0  0  0  0  0  0  0  0  0  0  0  0
    9.8850   41.2344   34.2844 P   0  0  0  0  0  5  0  0  0  0  0  0
   10.3655   41.4703   35.8749 O   0  0  0  0  0  1  0  0  0  0  0  0
    9.9529   45.1149   33.2535 C   0  0  2  0  0  0  0  0  0  0  0  0
   11.0715   46.0331   33.4763 N   0  0  0  0  0  0  0  0  0  0  0  0
    8.6604   45.6659   33.8896 C   0  0  0  0  0  0  0  0  0  0  0  0
    8.7917   45.8579   35.3715 C   0  0  0  0  0  0  0  0  0  0  0  0
    9.4348   46.9973   35.8619 O   0  0  0  0  0  0  0  0  0  0  0  0
    8.3548   44.9755   36.1601 O   0  0  0  0  0  0  0  0  0  0  0  0
    9.6341   47.2309   37.2537 C   0  0  0  0  0  0  0  0  0  0  0  0
   10.3626   48.5356   37.4837 C   0  0  0  0  0  0  0  0  0  0  0  0
   11.1802   48.7366   38.6275 C   0  0  0  0  0  0  0  0  0  0  0  0
   10.2090   49.5892   36.5604 C   0  0  0  0  0  0  0  0  0  0  0  0
   11.2940   47.7400   39.6585 N   0  0  0  0  0  4  0  0  0  0  0  0
   11.8840   49.9469   38.7656 C   0  0  0  0  0  0  0  0  0  0  0  0
   10.9016   50.7893   36.7262 C   0  0  0  0  0  0  0  0  0  0  0  0
   10.1797   47.0618   40.0961 O   0  0  0  0  0  1  0  0  0  0  0  0
   12.3610   47.6162   40.2948 O   0  0  0  0  0  0  0  0  0  0  0  0
   11.7465   50.9633   37.8200 C   0  0  0  0  0  0  0  0  0  0  0  0
    8.8077   40.1913   34.2087 O   0  0  0  0  0  0  0  0  0  0  0  0
   11.2369   40.7904   33.3690 O   0  0  0  0  0  0  0  0  0  0  0  0
   10.9155   40.6897   31.9960 C   0  0  0  0  0  0  0  0  0  0  0  0
   11.5270   39.3898   31.4374 C   0  0  0  0  0  0  0  0  0  0  0  0
   12.7508   39.0916   32.0839 O   0  0  0  0  0  0  0  0  0  0  0  0
   10.6122   38.1916   31.6452 C   0  0  0  0  0  0  0  0  0  0  0  0
   12.9429   37.6853   32.0295 C   0  0  0  0  0  0  0  0  0  0  0  0
    9.6070   38.0858   30.6603 O   0  0  0  0  0  0  0  0  0  0  0  0
   11.5845   37.0186   31.6879 C   0  0  0  0  0  0  0  0  0  0  0  0
   13.4899   37.2163   33.3250 N   0  0  0  0  0  0  0  0  0  0  0  0
   11.6201   36.3063   30.4693 O   0  0  0  0  0  0  0  0  0  0  0  0
   14.4759   36.3263   33.5739 C   0  0  0  0  0  0  0  0  0  0  0  0
   13.1175   37.6307   34.5699 C   0  0  0  0  0  0  0  0  0  0  0  0
   15.2065   35.6139   32.6746 N   0  0  0  0  0  0  0  0  0  0  0  0
   14.6731   36.2267   34.9191 C   0  0  0  0  0  0  0  0  0  0  0  0
   13.8224   37.0450   35.5792 N   0  0  0  0  0  0  0  0  0  0  0  0
   16.1640   34.7596   33.1551 C   0  0  0  0  0  0  0  0  0  0  0  0
   15.6517   35.3489   35.4136 C   0  0  0  0  0  0  0  0  0  0  0  0
   16.3795   34.6310   34.5046 N   0  0  0  0  0  0  0  0  0  0  0  0
   15.9006   35.1931   36.8094 N   0  0  0  0  0  0  0  0  0  0  0  0
    9.7828   45.0055   32.1587 H   0  0  0  0  0  0  0  0  0  0  0  0
   11.8822   45.7130   32.8967 H   0  0  0  0  0  0  0  0  0  0  0  0
   10.8100   46.9722   33.0967 H   0  0  0  0  0  0  0  0  0  0  0  0
    8.4078   46.6428   33.4238 H   0  0  0  0  0  0  0  0  0  0  0  0
    7.8129   44.9782   33.6750 H   0  0  0  0  0  0  0  0  0  0  0  0
   10.2289   46.3853   37.6608 H   0  0  0  0  0  0  0  0  0  0  0  0
    8.6505   47.2712   37.7691 H   0  0  0  0  0  0  0  0  0  0  0  0
    9.5595   49.4828   35.7006 H   0  0  0  0  0  0  0  0  0  0  0  0
   12.5213   50.1145   39.6248 H   0  0  0  0  0  0  0  0  0  0  0  0
   10.7844   51.5856   36.0024 H   0  0  0  0  0  0  0  0  0  0  0  0
   12.2846   51.8943   37.9444 H   0  0  0  0  0  0  0  0  0  0  0  0
   11.3825   41.5526   31.4746 H   0  0  0  0  0  0  0  0  0  0  0  0
    9.8254   40.7190   31.7587 H   0  0  0  0  0  0  0  0  0  0  0  0
   11.7318   39.5338   30.3520 H   0  0  0  0  0  0  0  0  0  0  0  0
   10.1215   38.2682   32.6412 H   0  0  0  0  0  0  0  0  0  0  0  0
   13.6882   37.4708   31.2319 H   0  0  0  0  0  0  0  0  0  0  0  0
   10.0257   38.1751   29.7656 H   0  0  0  0  0  0  0  0  0  0  0  0
   11.2796   36.3123   32.4915 H   0  0  0  0  0  0  0  0  0  0  0  0
   11.9872   36.9099   29.7714 H   0  0  0  0  0  0  0  0  0  0  0  0
   12.3365   38.3595   34.7453 H   0  0  0  0  0  0  0  0  0  0  0  0
   16.7577   34.1794   32.4622 H   0  0  0  0  0  0  0  0  0  0  0  0
   15.3532   35.7351   37.5144 H   0  0  0  0  0  0  0  0  0  0  0  0
   16.6368   34.5316   37.1418 H   0  0  0  0  0  0  0  0  0  0  0  0
  1  2  2  0
  1  3  1  0
  3  4  1  0
  4  5  1  0
  6  1  1  0
  7  6  1  0
  6  8  1  0
  8  9  1  0
  9 10  1  0
  9 11  2  0
 10 12  1  0
 12 13  1  0
 13 14  2  0
 15 13  1  0
 14 16  1  0
 14 17  1  0
 18 15  2  0
 16 19  1  0
 16 20  2  0
 17 21  2  0
 21 18  1  0
  4 22  2  0
  4 23  1  0
 24 23  1  0
 24 25  1  0
 25 26  1  0
 25 27  1  0
 26 28  1  0
 27 29  1  0
 27 30  1  0
 30 28  1  0
 28 31  1  0
 30 32  1  0
 33 31  1  0
 34 31  1  0
 35 33  2  0
 33 36  1  0
 37 34  2  0
 38 35  1  0
 36 39  2  0
 36 37  1  0
 40 38  2  0
 40 39  1  0
 39 41  1  0
  6 42  1  6
  7 43  1  0
  7 44  1  0
  8 45  1  0
  8 46  1  0
 12 47  1  0
 12 48  1  0
 15 49  1  0
 17 50  1  0
 18 51  1  0
 21 52  1  0
 24 53  1  0
 24 54  1  0
 25 55  1  0
 27 56  1  0
 28 57  1  0
 29 58  1  0
 30 59  1  0
 32 60  1  0
 34 61  1  0
 38 62  1  0
 41 63  1  0
 41 64  1  0
M  CHG  3   5  -1  16   1  19  -1
M  END
>  <EmbedRMS>  (90) 
0.08700321978800317

$$$$

     RDKit          3D

 64 67  0  0  0  0  0  0  0  0999 V2000
   10.2829   43.7755   33.8075 C   0  0  0  0  0  0  0  0  0  0  0  0
   11.4086   43.5915   34.3577 O   0  0  0  0  0  0  0  0  0  0  0  0
    9.3665   42.7320   33.7014 O   0  0  0  0  0  0  0  0  0  0  0  0
    9.8859   41.2348   34.2841 P   0  0  0  0  0  5  0  0  0  0  0  0
   10.3669   41.4696   35.8745 O   0  0  0  0  0  1  0  0  0  0  0  0
    9.9537   45.1115   33.2433 C   0  0  2  0  0  0  0  0  0  0  0  0
   11.0723   46.0265   33.4850 N   0  0  0  0  0  0  0  0  0  0  0  0
    8.6393   45.6430   33.8538 C   0  0  0  0  0  0  0  0  0  0  0  0
    8.2430   46.9557   33.2531 C   0  0  0  0  0  0  0  0  0  0  0  0
    8.3516   48.1235   34.0163 O   0  0  0  0  0  0  0  0  0  0  0  0
    7.8322   47.0001   32.0611 O   0  0  0  0  0  0  0  0  0  0  0  0
    8.0877   49.4232   33.4918 C   0  0  0  0  0  0  0  0  0  0  0  0
    9.1883   49.8486   32.5475 C   0  0  0  0  0  0  0  0  0  0  0  0
   10.5549   49.8853   32.9401 C   0  0  0  0  0  0  0  0  0  0  0  0
    8.8462   50.1680   31.2204 C   0  0  0  0  0  0  0  0  0  0  0  0
   10.9731   49.5781   34.2843 N   0  0  0  0  0  4  0  0  0  0  0  0
   11.5317   50.2132   31.9809 C   0  0  0  0  0  0  0  0  0  0  0  0
    9.8306   50.5046   30.2911 C   0  0  0  0  0  0  0  0  0  0  0  0
   10.2216   49.9747   35.3654 O   0  0  0  0  0  1  0  0  0  0  0  0
   12.1051   49.0936   34.4913 O   0  0  0  0  0  0  0  0  0  0  0  0
   11.1708   50.5230   30.6694 C   0  0  0  0  0  0  0  0  0  0  0  0
    8.8085   40.1917   34.2087 O   0  0  0  0  0  0  0  0  0  0  0  0
   11.2373   40.7909   33.3676 O   0  0  0  0  0  0  0  0  0  0  0  0
   10.9151   40.6883   31.9947 C   0  0  0  0  0  0  0  0  0  0  0  0
   11.5260   39.3871   31.4365 C   0  0  0  0  0  0  0  0  0  0  0  0
   12.7490   39.0894   32.0820 O   0  0  0  0  0  0  0  0  0  0  0  0
   10.6122   38.1893   31.6461 C   0  0  0  0  0  0  0  0  0  0  0  0
   12.9373   37.6828   32.0301 C   0  0  0  0  0  0  0  0  0  0  0  0
    9.6150   38.0839   30.6538 O   0  0  0  0  0  0  0  0  0  0  0  0
   11.5793   37.0137   31.7014 C   0  0  0  0  0  0  0  0  0  0  0  0
   13.4906   37.2170   33.3242 N   0  0  0  0  0  0  0  0  0  0  0  0
   11.6217   36.3253   30.4725 O   0  0  0  0  0  0  0  0  0  0  0  0
   14.4763   36.3266   33.5731 C   0  0  0  0  0  0  0  0  0  0  0  0
   13.1182   37.6308   34.5694 C   0  0  0  0  0  0  0  0  0  0  0  0
   15.2065   35.6137   32.6740 N   0  0  0  0  0  0  0  0  0  0  0  0
   14.6735   36.2270   34.9185 C   0  0  0  0  0  0  0  0  0  0  0  0
   13.8229   37.0451   35.5787 N   0  0  0  0  0  0  0  0  0  0  0  0
   16.1639   34.7593   33.1547 C   0  0  0  0  0  0  0  0  0  0  0  0
   15.6519   35.3489   35.4132 C   0  0  0  0  0  0  0  0  0  0  0  0
   16.3794   34.6308   34.5042 N   0  0  0  0  0  0  0  0  0  0  0  0
   15.9006   35.1931   36.8090 N   0  0  0  0  0  0  0  0  0  0  0  0
    9.8216   44.9849   32.1455 H   0  0  0  0  0  0  0  0  0  0  0  0
   11.0670   46.3371   34.4845 H   0  0  0  0  0  0  0  0  0  0  0  0
   10.9491   46.8767   32.8889 H   0  0  0  0  0  0  0  0  0  0  0  0
    8.7486   45.7576   34.9546 H   0  0  0  0  0  0  0  0  0  0  0  0
    7.8182   44.9158   33.6714 H   0  0  0  0  0  0  0  0  0  0  0  0
    7.0936   49.4221   32.9925 H   0  0  0  0  0  0  0  0  0  0  0  0
    8.0102   50.1506   34.3245 H   0  0  0  0  0  0  0  0  0  0  0  0
    7.8128   50.1450   30.8968 H   0  0  0  0  0  0  0  0  0  0  0  0
   12.5790   50.2434   32.2536 H   0  0  0  0  0  0  0  0  0  0  0  0
    9.5534   50.7448   29.2728 H   0  0  0  0  0  0  0  0  0  0  0  0
   11.9330   50.7801   29.9451 H   0  0  0  0  0  0  0  0  0  0  0  0
    9.8248   40.7178   31.7583 H   0  0  0  0  0  0  0  0  0  0  0  0
   11.3819   41.5504   31.4719 H   0  0  0  0  0  0  0  0  0  0  0  0
   11.7291   39.5286   30.3504 H   0  0  0  0  0  0  0  0  0  0  0  0
   10.1139   38.2719   32.6380 H   0  0  0  0  0  0  0  0  0  0  0  0
   13.6725   37.4638   31.2240 H   0  0  0  0  0  0  0  0  0  0  0  0
   10.0536   38.1085   29.7639 H   0  0  0  0  0  0  0  0  0  0  0  0
   11.2646   36.3135   32.5107 H   0  0  0  0  0  0  0  0  0  0  0  0
   12.1550   35.5033   30.6316 H   0  0  0  0  0  0  0  0  0  0  0  0
   12.3362   38.3587   34.7450 H   0  0  0  0  0  0  0  0  0  0  0  0
   16.7573   34.1788   32.4619 H   0  0  0  0  0  0  0  0  0  0  0  0
   16.6366   34.5314   37.1415 H   0  0  0  0  0  0  0  0  0  0  0  0
   15.3533   35.7353   37.5139 H   0  0  0  0  0  0  0  0  0  0  0  0
  1  2  2  0
  1  3  1  0
  3  4  1  0
  4  5  1  0
  6  1  1  0
  7  6  1  0
  6  8  1  0
  8  9  1  0
  9 10  1  0
  9 11  2  0
 10 12  1  0
 12 13  1  0
 13 14  2  0
 15 13  1  0
 14 16  1  0
 14 17  1  0
 18 15  2  0
 16 19  1  0
 16 20  2  0
 17 21  2  0
 21 18  1  0
  4 22  2  0
  4 23  1  0
 24 23  1  0
 24 25  1  0
 25 26  1  0
 25 27  1  0
 26 28  1  0
 27 29  1  0
 27 30  1  0
 30 28  1  0
 28 31  1  0
 30 32  1  0
 33 31  1  0
 34 31  1  0
 35 33  2  0
 33 36  1  0
 37 34  2  0
 38 35  1  0
 36 39  2  0
 36 37  1  0
 40 38  2  0
 40 39  1  0
 39 41  1  0
  6 42  1  6
  7 43  1  0
  7 44  1  0
  8 45  1  0
  8 46  1  0
 12 47  1  0
 12 48  1  0
 15 49  1  0
 17 50  1  0
 18 51  1  0
 21 52  1  0
 24 53  1  0
 24 54  1  0
 25 55  1  0
 27 56  1  0
 28 57  1  0
 29 58  1  0
 30 59  1  0
 32 60  1  0
 34 61  1  0
 38 62  1  0
 41 63  1  0
 41 64  1  0
M  CHG  3   5  -1  16   1  19  -1
M  END
>  <EmbedRMS>  (91) 
0.08760409207828096

$$$$

     RDKit          3D

 64 67  0  0  0  0  0  0  0  0999 V2000
   10.2828   43.7755   33.8075 C   0  0  0  0  0  0  0  0  0  0  0  0
   11.4085   43.5915   34.3576 O   0  0  0  0  0  0  0  0  0  0  0  0
    9.3667   42.7319   33.7011 O   0  0  0  0  0  0  0  0  0  0  0  0
    9.8864   41.2345   34.2832 P   0  0  0  0  0  5  0  0  0  0  0  0
   10.3676   41.4693   35.8736 O   0  0  0  0  0  1  0  0  0  0  0  0
    9.9530   45.1120   33.2441 C   0  0  2  0  0  0  0  0  0  0  0  0
   11.0729   46.0265   33.4845 N   0  0  0  0  0  0  0  0  0  0  0  0
    8.6405   45.6443   33.8572 C   0  0  0  0  0  0  0  0  0  0  0  0
    8.2253   46.9368   33.2268 C   0  0  0  0  0  0  0  0  0  0  0  0
    8.6111   48.1431   33.8170 O   0  0  0  0  0  0  0  0  0  0  0  0
    7.5653   46.9274   32.1518 O   0  0  0  0  0  0  0  0  0  0  0  0
    8.2752   49.4124   33.2659 C   0  0  0  0  0  0  0  0  0  0  0  0
    8.8175   50.5103   34.1466 C   0  0  0  0  0  0  0  0  0  0  0  0
    8.5255   50.5793   35.5361 C   0  0  0  0  0  0  0  0  0  0  0  0
    9.6673   51.4761   33.5753 C   0  0  0  0  0  0  0  0  0  0  0  0
    7.6493   49.6336   36.1773 N   0  0  0  0  0  4  0  0  0  0  0  0
    9.1208   51.5920   36.3110 C   0  0  0  0  0  0  0  0  0  0  0  0
   10.2341   52.4809   34.3601 C   0  0  0  0  0  0  0  0  0  0  0  0
    6.5020   49.2027   35.5532 O   0  0  0  0  0  1  0  0  0  0  0  0
    7.8367   49.3171   37.3704 O   0  0  0  0  0  0  0  0  0  0  0  0
    9.9653   52.5359   35.7258 C   0  0  0  0  0  0  0  0  0  0  0  0
    8.8087   40.1917   34.2082 O   0  0  0  0  0  0  0  0  0  0  0  0
   11.2376   40.7913   33.3656 O   0  0  0  0  0  0  0  0  0  0  0  0
   10.9142   40.6851   31.9930 C   0  0  0  0  0  0  0  0  0  0  0  0
   11.5166   39.3773   31.4394 C   0  0  0  0  0  0  0  0  0  0  0  0
   12.7472   39.0855   32.0740 O   0  0  0  0  0  0  0  0  0  0  0  0
   10.6047   38.1867   31.6670 C   0  0  0  0  0  0  0  0  0  0  0  0
   12.9345   37.6791   32.0282 C   0  0  0  0  0  0  0  0  0  0  0  0
    9.6378   38.0917   30.6489 O   0  0  0  0  0  0  0  0  0  0  0  0
   11.5761   37.0129   31.7057 C   0  0  0  0  0  0  0  0  0  0  0  0
   13.4909   37.2177   33.3233 N   0  0  0  0  0  0  0  0  0  0  0  0
   11.6234   36.3371   30.4684 O   0  0  0  0  0  0  0  0  0  0  0  0
   14.4765   36.3272   33.5727 C   0  0  0  0  0  0  0  0  0  0  0  0
   13.1182   37.6315   34.5685 C   0  0  0  0  0  0  0  0  0  0  0  0
   15.2066   35.6137   32.6739 N   0  0  0  0  0  0  0  0  0  0  0  0
   14.6736   36.2276   34.9182 C   0  0  0  0  0  0  0  0  0  0  0  0
   13.8227   37.0457   35.5781 N   0  0  0  0  0  0  0  0  0  0  0  0
   16.1638   34.7593   33.1548 C   0  0  0  0  0  0  0  0  0  0  0  0
   15.6517   35.3492   35.4131 C   0  0  0  0  0  0  0  0  0  0  0  0
   16.3792   34.6309   34.5043 N   0  0  0  0  0  0  0  0  0  0  0  0
   15.9002   35.1934   36.8090 N   0  0  0  0  0  0  0  0  0  0  0  0
    9.8184   44.9861   32.1465 H   0  0  0  0  0  0  0  0  0  0  0  0
   11.0759   46.3291   34.4865 H   0  0  0  0  0  0  0  0  0  0  0  0
   10.9463   46.8821   32.8968 H   0  0  0  0  0  0  0  0  0  0  0  0
    8.7604   45.7915   34.9529 H   0  0  0  0  0  0  0  0  0  0  0  0
    7.8254   44.9026   33.7070 H   0  0  0  0  0  0  0  0  0  0  0  0
    8.6991   49.4793   32.2397 H   0  0  0  0  0  0  0  0  0  0  0  0
    7.1734   49.5157   33.1751 H   0  0  0  0  0  0  0  0  0  0  0  0
    9.9023   51.4481   32.5184 H   0  0  0  0  0  0  0  0  0  0  0  0
    8.9164   51.6609   37.3721 H   0  0  0  0  0  0  0  0  0  0  0  0
   10.8886   53.2153   33.9085 H   0  0  0  0  0  0  0  0  0  0  0  0
   10.4096   53.3142   36.3329 H   0  0  0  0  0  0  0  0  0  0  0  0
    9.8241   40.7211   31.7568 H   0  0  0  0  0  0  0  0  0  0  0  0
   11.3868   41.5415   31.4662 H   0  0  0  0  0  0  0  0  0  0  0  0
   11.6987   39.5012   30.3468 H   0  0  0  0  0  0  0  0  0  0  0  0
   10.1095   38.2771   32.6629 H   0  0  0  0  0  0  0  0  0  0  0  0
   13.6672   37.4545   31.2213 H   0  0  0  0  0  0  0  0  0  0  0  0
    8.9779   37.4157   30.9534 H   0  0  0  0  0  0  0  0  0  0  0  0
   11.2860   36.3041   32.5177 H   0  0  0  0  0  0  0  0  0  0  0  0
   10.8690   35.6918   30.4657 H   0  0  0  0  0  0  0  0  0  0  0  0
   12.3356   38.3587   34.7440 H   0  0  0  0  0  0  0  0  0  0  0  0
   16.7572   34.1786   32.4621 H   0  0  0  0  0  0  0  0  0  0  0  0
   16.6361   34.5315   37.1415 H   0  0  0  0  0  0  0  0  0  0  0  0
   15.3530   35.7358   37.5138 H   0  0  0  0  0  0  0  0  0  0  0  0
  1  2  2  0
  1  3  1  0
  3  4  1  0
  4  5  1  0
  6  1  1  0
  7  6  1  0
  6  8  1  0
  8  9  1  0
  9 10  1  0
  9 11  2  0
 10 12  1  0
 12 13  1  0
 13 14  2  0
 15 13  1  0
 14 16  1  0
 14 17  1  0
 18 15  2  0
 16 19  1  0
 16 20  2  0
 17 21  2  0
 21 18  1  0
  4 22  2  0
  4 23  1  0
 24 23  1  0
 24 25  1  0
 25 26  1  0
 25 27  1  0
 26 28  1  0
 27 29  1  0
 27 30  1  0
 30 28  1  0
 28 31  1  0
 30 32  1  0
 33 31  1  0
 34 31  1  0
 35 33  2  0
 33 36  1  0
 37 34  2  0
 38 35  1  0
 36 39  2  0
 36 37  1  0
 40 38  2  0
 40 39  1  0
 39 41  1  0
  6 42  1  6
  7 43  1  0
  7 44  1  0
  8 45  1  0
  8 46  1  0
 12 47  1  0
 12 48  1  0
 15 49  1  0
 17 50  1  0
 18 51  1  0
 21 52  1  0
 24 53  1  0
 24 54  1  0
 25 55  1  0
 27 56  1  0
 28 57  1  0
 29 58  1  0
 30 59  1  0
 32 60  1  0
 34 61  1  0
 38 62  1  0
 41 63  1  0
 41 64  1  0
M  CHG  3   5  -1  16   1  19  -1
M  END
>  <EmbedRMS>  (92) 
0.08872789974704653

$$$$

     RDKit          3D

 64 67  0  0  0  0  0  0  0  0999 V2000
   10.2830   43.7754   33.8079 C   0  0  0  0  0  0  0  0  0  0  0  0
   11.4087   43.5914   34.3580 O   0  0  0  0  0  0  0  0  0  0  0  0
    9.3670   42.7317   33.7013 O   0  0  0  0  0  0  0  0  0  0  0  0
    9.8865   41.2344   34.2838 P   0  0  0  0  0  5  0  0  0  0  0  0
   10.3666   41.4693   35.8745 O   0  0  0  0  0  1  0  0  0  0  0  0
    9.9541   45.1112   33.2425 C   0  0  2  0  0  0  0  0  0  0  0  0
   11.0719   46.0273   33.4850 N   0  0  0  0  0  0  0  0  0  0  0  0
    8.6396   45.6442   33.8502 C   0  0  0  0  0  0  0  0  0  0  0  0
    8.2180   46.9259   33.2014 C   0  0  0  0  0  0  0  0  0  0  0  0
    7.7257   46.9021   31.8938 O   0  0  0  0  0  0  0  0  0  0  0  0
    8.3339   48.0152   33.8267 O   0  0  0  0  0  0  0  0  0  0  0  0
    7.3257   48.0808   31.1993 C   0  0  0  0  0  0  0  0  0  0  0  0
    6.8324   47.7481   29.8094 C   0  0  0  0  0  0  0  0  0  0  0  0
    6.9301   48.6826   28.7444 C   0  0  0  0  0  0  0  0  0  0  0  0
    6.2351   46.4950   29.5657 C   0  0  0  0  0  0  0  0  0  0  0  0
    7.4316   50.0146   28.9527 N   0  0  0  0  0  4  0  0  0  0  0  0
    6.5106   48.3036   27.4562 C   0  0  0  0  0  0  0  0  0  0  0  0
    5.8080   46.1459   28.2838 C   0  0  0  0  0  0  0  0  0  0  0  0
    7.0536   50.7342   30.0629 O   0  0  0  0  0  1  0  0  0  0  0  0
    8.0564   50.5980   28.0427 O   0  0  0  0  0  0  0  0  0  0  0  0
    5.9564   47.0436   27.2289 C   0  0  0  0  0  0  0  0  0  0  0  0
    8.8091   40.1914   34.2077 O   0  0  0  0  0  0  0  0  0  0  0  0
   11.2390   40.7909   33.3682 O   0  0  0  0  0  0  0  0  0  0  0  0
   10.9194   40.6896   31.9946 C   0  0  0  0  0  0  0  0  0  0  0  0
   11.5171   39.3801   31.4397 C   0  0  0  0  0  0  0  0  0  0  0  0
   12.7478   39.0861   32.0734 O   0  0  0  0  0  0  0  0  0  0  0  0
   10.6031   38.1891   31.6666 C   0  0  0  0  0  0  0  0  0  0  0  0
   12.9335   37.6797   32.0280 C   0  0  0  0  0  0  0  0  0  0  0  0
    9.6397   38.0777   30.6456 O   0  0  0  0  0  0  0  0  0  0  0  0
   11.5739   37.0154   31.7057 C   0  0  0  0  0  0  0  0  0  0  0  0
   13.4903   37.2178   33.3231 N   0  0  0  0  0  0  0  0  0  0  0  0
   11.6211   36.3376   30.4695 O   0  0  0  0  0  0  0  0  0  0  0  0
   14.4761   36.3273   33.5725 C   0  0  0  0  0  0  0  0  0  0  0  0
   13.1179   37.6316   34.5684 C   0  0  0  0  0  0  0  0  0  0  0  0
   15.2063   35.6139   32.6737 N   0  0  0  0  0  0  0  0  0  0  0  0
   14.6733   36.2277   34.9179 C   0  0  0  0  0  0  0  0  0  0  0  0
   13.8225   37.0459   35.5779 N   0  0  0  0  0  0  0  0  0  0  0  0
   16.1636   34.7594   33.1546 C   0  0  0  0  0  0  0  0  0  0  0  0
   15.6515   35.3494   35.4129 C   0  0  0  0  0  0  0  0  0  0  0  0
   16.3791   34.6311   34.5041 N   0  0  0  0  0  0  0  0  0  0  0  0
   15.9001   35.1935   36.8088 N   0  0  0  0  0  0  0  0  0  0  0  0
    9.8242   44.9832   32.1445 H   0  0  0  0  0  0  0  0  0  0  0  0
   10.9366   46.8888   32.9079 H   0  0  0  0  0  0  0  0  0  0  0  0
   11.0789   46.3196   34.4901 H   0  0  0  0  0  0  0  0  0  0  0  0
    8.7551   45.7925   34.9469 H   0  0  0  0  0  0  0  0  0  0  0  0
    7.8264   44.9022   33.6959 H   0  0  0  0  0  0  0  0  0  0  0  0
    6.5095   48.5846   31.7603 H   0  0  0  0  0  0  0  0  0  0  0  0
    8.2046   48.7580   31.1404 H   0  0  0  0  0  0  0  0  0  0  0  0
    6.1067   45.7769   30.3658 H   0  0  0  0  0  0  0  0  0  0  0  0
    6.5879   48.9979   26.6290 H   0  0  0  0  0  0  0  0  0  0  0  0
    5.3630   45.1750   28.1080 H   0  0  0  0  0  0  0  0  0  0  0  0
    5.6267   46.7689   26.2352 H   0  0  0  0  0  0  0  0  0  0  0  0
   11.4007   41.5437   31.4721 H   0  0  0  0  0  0  0  0  0  0  0  0
    9.8315   40.7396   31.7549 H   0  0  0  0  0  0  0  0  0  0  0  0
   11.6983   39.5042   30.3470 H   0  0  0  0  0  0  0  0  0  0  0  0
   10.1090   38.2632   32.6649 H   0  0  0  0  0  0  0  0  0  0  0  0
   13.6655   37.4541   31.2207 H   0  0  0  0  0  0  0  0  0  0  0  0
    8.8965   38.6901   30.8851 H   0  0  0  0  0  0  0  0  0  0  0  0
   11.2845   36.3060   32.5175 H   0  0  0  0  0  0  0  0  0  0  0  0
   10.8523   35.7095   30.4590 H   0  0  0  0  0  0  0  0  0  0  0  0
   12.3353   38.3588   34.7439 H   0  0  0  0  0  0  0  0  0  0  0  0
   16.7570   34.1788   32.4619 H   0  0  0  0  0  0  0  0  0  0  0  0
   16.6360   34.5317   37.1413 H   0  0  0  0  0  0  0  0  0  0  0  0
   15.3529   35.7359   37.5136 H   0  0  0  0  0  0  0  0  0  0  0  0
  1  2  2  0
  1  3  1  0
  3  4  1  0
  4  5  1  0
  6  1  1  0
  7  6  1  0
  6  8  1  0
  8  9  1  0
  9 10  1  0
  9 11  2  0
 10 12  1  0
 12 13  1  0
 13 14  2  0
 15 13  1  0
 14 16  1  0
 14 17  1  0
 18 15  2  0
 16 19  1  0
 16 20  2  0
 17 21  2  0
 21 18  1  0
  4 22  2  0
  4 23  1  0
 24 23  1  0
 24 25  1  0
 25 26  1  0
 25 27  1  0
 26 28  1  0
 27 29  1  0
 27 30  1  0
 30 28  1  0
 28 31  1  0
 30 32  1  0
 33 31  1  0
 34 31  1  0
 35 33  2  0
 33 36  1  0
 37 34  2  0
 38 35  1  0
 36 39  2  0
 36 37  1  0
 40 38  2  0
 40 39  1  0
 39 41  1  0
  6 42  1  6
  7 43  1  0
  7 44  1  0
  8 45  1  0
  8 46  1  0
 12 47  1  0
 12 48  1  0
 15 49  1  0
 17 50  1  0
 18 51  1  0
 21 52  1  0
 24 53  1  0
 24 54  1  0
 25 55  1  0
 27 56  1  0
 28 57  1  0
 29 58  1  0
 30 59  1  0
 32 60  1  0
 34 61  1  0
 38 62  1  0
 41 63  1  0
 41 64  1  0
M  CHG  3   5  -1  16   1  19  -1
M  END
>  <EmbedRMS>  (93) 
0.08916716723733036

$$$$

     RDKit          3D

 64 67  0  0  0  0  0  0  0  0999 V2000
   10.2844   43.7730   33.8073 C   0  0  0  0  0  0  0  0  0  0  0  0
   11.4102   43.5880   34.3564 O   0  0  0  0  0  0  0  0  0  0  0  0
    9.3664   42.7315   33.7014 O   0  0  0  0  0  0  0  0  0  0  0  0
    9.8854   41.2343   34.2843 P   0  0  0  0  0  5  0  0  0  0  0  0
   10.3662   41.4697   35.8746 O   0  0  0  0  0  1  0  0  0  0  0  0
    9.9586   45.1104   33.2434 C   0  0  2  0  0  0  0  0  0  0  0  0
   11.0675   46.0351   33.4851 N   0  0  0  0  0  0  0  0  0  0  0  0
    8.6139   45.6649   33.7736 C   0  0  0  0  0  0  0  0  0  0  0  0
    8.5949   45.9074   35.2693 C   0  0  0  0  0  0  0  0  0  0  0  0
    8.2799   47.1495   35.8436 O   0  0  0  0  0  0  0  0  0  0  0  0
    8.8258   44.9413   36.0435 O   0  0  0  0  0  0  0  0  0  0  0  0
    7.9435   48.3357   35.1232 C   0  0  0  0  0  0  0  0  0  0  0  0
    9.1683   48.9532   34.4860 C   0  0  0  0  0  0  0  0  0  0  0  0
    9.1517   49.4810   33.1692 C   0  0  0  0  0  0  0  0  0  0  0  0
   10.3604   49.0120   35.2318 C   0  0  0  0  0  0  0  0  0  0  0  0
    7.9408   49.5483   32.4000 N   0  0  0  0  0  4  0  0  0  0  0  0
   10.3453   49.9695   32.6090 C   0  0  0  0  0  0  0  0  0  0  0  0
   11.5308   49.5190   34.6655 C   0  0  0  0  0  0  0  0  0  0  0  0
    6.7956   50.0636   32.9619 O   0  0  0  0  0  1  0  0  0  0  0  0
    7.9715   49.3506   31.1678 O   0  0  0  0  0  0  0  0  0  0  0  0
   11.5263   49.9854   33.3523 C   0  0  0  0  0  0  0  0  0  0  0  0
    8.8080   40.1913   34.2087 O   0  0  0  0  0  0  0  0  0  0  0  0
   11.2372   40.7904   33.3682 O   0  0  0  0  0  0  0  0  0  0  0  0
   10.9159   40.6891   31.9951 C   0  0  0  0  0  0  0  0  0  0  0  0
   11.5250   39.3873   31.4366 C   0  0  0  0  0  0  0  0  0  0  0  0
   12.7485   39.0879   32.0804 O   0  0  0  0  0  0  0  0  0  0  0  0
   10.6099   38.1909   31.6472 C   0  0  0  0  0  0  0  0  0  0  0  0
   12.9347   37.6808   32.0293 C   0  0  0  0  0  0  0  0  0  0  0  0
    9.6124   38.0874   30.6549 O   0  0  0  0  0  0  0  0  0  0  0  0
   11.5766   37.0133   31.7025 C   0  0  0  0  0  0  0  0  0  0  0  0
   13.4901   37.2165   33.3236 N   0  0  0  0  0  0  0  0  0  0  0  0
   11.6322   36.3231   30.4741 O   0  0  0  0  0  0  0  0  0  0  0  0
   14.4762   36.3266   33.5727 C   0  0  0  0  0  0  0  0  0  0  0  0
   13.1178   37.6306   34.5689 C   0  0  0  0  0  0  0  0  0  0  0  0
   15.2066   35.6136   32.6738 N   0  0  0  0  0  0  0  0  0  0  0  0
   14.6735   36.2272   34.9182 C   0  0  0  0  0  0  0  0  0  0  0  0
   13.8228   37.0452   35.5783 N   0  0  0  0  0  0  0  0  0  0  0  0
   16.1641   34.7594   33.1547 C   0  0  0  0  0  0  0  0  0  0  0  0
   15.6518   35.3491   35.4130 C   0  0  0  0  0  0  0  0  0  0  0  0
   16.3795   34.6310   34.5042 N   0  0  0  0  0  0  0  0  0  0  0  0
   15.9005   35.1933   36.8089 N   0  0  0  0  0  0  0  0  0  0  0  0
    9.8565   44.9767   32.1438 H   0  0  0  0  0  0  0  0  0  0  0  0
   10.8757   46.9261   32.9729 H   0  0  0  0  0  0  0  0  0  0  0  0
   11.1294   46.2634   34.5039 H   0  0  0  0  0  0  0  0  0  0  0  0
    8.3836   46.5891   33.2103 H   0  0  0  0  0  0  0  0  0  0  0  0
    7.8008   44.9478   33.5289 H   0  0  0  0  0  0  0  0  0  0  0  0
    7.5199   49.0713   35.8383 H   0  0  0  0  0  0  0  0  0  0  0  0
    7.1471   48.0950   34.3907 H   0  0  0  0  0  0  0  0  0  0  0  0
   10.3896   48.6442   36.2500 H   0  0  0  0  0  0  0  0  0  0  0  0
   10.3543   50.3644   31.6009 H   0  0  0  0  0  0  0  0  0  0  0  0
   12.4449   49.5435   35.2445 H   0  0  0  0  0  0  0  0  0  0  0  0
   12.4364   50.3732   32.9135 H   0  0  0  0  0  0  0  0  0  0  0  0
    9.8259   40.7208   31.7578 H   0  0  0  0  0  0  0  0  0  0  0  0
   11.3849   41.5506   31.4732 H   0  0  0  0  0  0  0  0  0  0  0  0
   11.7271   39.5286   30.3502 H   0  0  0  0  0  0  0  0  0  0  0  0
   10.1123   38.2730   32.6392 H   0  0  0  0  0  0  0  0  0  0  0  0
   13.6684   37.4592   31.2224 H   0  0  0  0  0  0  0  0  0  0  0  0
   10.0511   38.1107   29.7649 H   0  0  0  0  0  0  0  0  0  0  0  0
   11.2801   36.3128   32.5194 H   0  0  0  0  0  0  0  0  0  0  0  0
   10.8626   35.6960   30.4644 H   0  0  0  0  0  0  0  0  0  0  0  0
   12.3354   38.3579   34.7445 H   0  0  0  0  0  0  0  0  0  0  0  0
   16.7579   34.1790   32.4621 H   0  0  0  0  0  0  0  0  0  0  0  0
   15.3533   35.7355   37.5138 H   0  0  0  0  0  0  0  0  0  0  0  0
   16.6364   34.5315   37.1412 H   0  0  0  0  0  0  0  0  0  0  0  0
  1  2  2  0
  1  3  1  0
  3  4  1  0
  4  5  1  0
  6  1  1  0
  7  6  1  0
  6  8  1  0
  8  9  1  0
  9 10  1  0
  9 11  2  0
 10 12  1  0
 12 13  1  0
 13 14  2  0
 15 13  1  0
 14 16  1  0
 14 17  1  0
 18 15  2  0
 16 19  1  0
 16 20  2  0
 17 21  2  0
 21 18  1  0
  4 22  2  0
  4 23  1  0
 24 23  1  0
 24 25  1  0
 25 26  1  0
 25 27  1  0
 26 28  1  0
 27 29  1  0
 27 30  1  0
 30 28  1  0
 28 31  1  0
 30 32  1  0
 33 31  1  0
 34 31  1  0
 35 33  2  0
 33 36  1  0
 37 34  2  0
 38 35  1  0
 36 39  2  0
 36 37  1  0
 40 38  2  0
 40 39  1  0
 39 41  1  0
  6 42  1  6
  7 43  1  0
  7 44  1  0
  8 45  1  0
  8 46  1  0
 12 47  1  0
 12 48  1  0
 15 49  1  0
 17 50  1  0
 18 51  1  0
 21 52  1  0
 24 53  1  0
 24 54  1  0
 25 55  1  0
 27 56  1  0
 28 57  1  0
 29 58  1  0
 30 59  1  0
 32 60  1  0
 34 61  1  0
 38 62  1  0
 41 63  1  0
 41 64  1  0
M  CHG  3   5  -1  16   1  19  -1
M  END
>  <EmbedRMS>  (94) 
0.08794088713080121

$$$$

     RDKit          3D

 64 67  0  0  0  0  0  0  0  0999 V2000
   10.2786   43.7768   33.8121 C   0  0  0  0  0  0  0  0  0  0  0  0
   11.4051   43.5918   34.3605 O   0  0  0  0  0  0  0  0  0  0  0  0
    9.3661   42.7306   33.7018 O   0  0  0  0  0  0  0  0  0  0  0  0
    9.8870   41.2339   34.2841 P   0  0  0  0  0  5  0  0  0  0  0  0
   10.3656   41.4689   35.8751 O   0  0  0  0  0  1  0  0  0  0  0  0
    9.9514   45.1173   33.2478 C   0  0  2  0  0  0  0  0  0  0  0  0
   11.0789   46.0231   33.4760 N   0  0  0  0  0  0  0  0  0  0  0  0
    8.6608   45.7032   33.8658 C   0  0  0  0  0  0  0  0  0  0  0  0
    7.4258   44.9440   33.4798 C   0  0  0  0  0  0  0  0  0  0  0  0
    6.5054   44.5901   34.4701 O   0  0  0  0  0  0  0  0  0  0  0  0
    7.2004   44.6750   32.2678 O   0  0  0  0  0  0  0  0  0  0  0  0
    5.3093   43.8692   34.1898 C   0  0  0  0  0  0  0  0  0  0  0  0
    4.4966   43.7196   35.4530 C   0  0  0  0  0  0  0  0  0  0  0  0
    5.0323   43.1364   36.6345 C   0  0  0  0  0  0  0  0  0  0  0  0
    3.1783   44.2127   35.4694 C   0  0  0  0  0  0  0  0  0  0  0  0
    6.3649   42.5958   36.6835 N   0  0  0  0  0  4  0  0  0  0  0  0
    4.2429   43.0979   37.7977 C   0  0  0  0  0  0  0  0  0  0  0  0
    2.4072   44.1487   36.6306 C   0  0  0  0  0  0  0  0  0  0  0  0
    7.0697   42.6098   37.8652 O   0  0  0  0  0  1  0  0  0  0  0  0
    6.8297   41.9595   35.7166 O   0  0  0  0  0  0  0  0  0  0  0  0
    2.9401   43.5971   37.7935 C   0  0  0  0  0  0  0  0  0  0  0  0
    8.8113   40.1892   34.2063 O   0  0  0  0  0  0  0  0  0  0  0  0
   11.2397   40.7926   33.3687 O   0  0  0  0  0  0  0  0  0  0  0  0
   10.9191   40.6909   31.9956 C   0  0  0  0  0  0  0  0  0  0  0  0
   11.5175   39.3824   31.4412 C   0  0  0  0  0  0  0  0  0  0  0  0
   12.7495   39.0893   32.0756 O   0  0  0  0  0  0  0  0  0  0  0  0
   10.6036   38.1901   31.6660 C   0  0  0  0  0  0  0  0  0  0  0  0
   12.9400   37.6834   32.0276 C   0  0  0  0  0  0  0  0  0  0  0  0
    9.6376   38.0786   30.6476 O   0  0  0  0  0  0  0  0  0  0  0  0
   11.5803   37.0204   31.6937 C   0  0  0  0  0  0  0  0  0  0  0  0
   13.4902   37.2177   33.3237 N   0  0  0  0  0  0  0  0  0  0  0  0
   11.6117   36.3194   30.4681 O   0  0  0  0  0  0  0  0  0  0  0  0
   14.4758   36.3271   33.5731 C   0  0  0  0  0  0  0  0  0  0  0  0
   13.1175   37.6317   34.5688 C   0  0  0  0  0  0  0  0  0  0  0  0
   15.2064   35.6141   32.6742 N   0  0  0  0  0  0  0  0  0  0  0  0
   14.6729   36.2274   34.9184 C   0  0  0  0  0  0  0  0  0  0  0  0
   13.8221   37.0458   35.5783 N   0  0  0  0  0  0  0  0  0  0  0  0
   16.1637   34.7597   33.1549 C   0  0  0  0  0  0  0  0  0  0  0  0
   15.6514   35.3493   35.4133 C   0  0  0  0  0  0  0  0  0  0  0  0
   16.3791   34.6312   34.5044 N   0  0  0  0  0  0  0  0  0  0  0  0
   15.9001   35.1935   36.8091 N   0  0  0  0  0  0  0  0  0  0  0  0
    9.8162   45.0011   32.1496 H   0  0  0  0  0  0  0  0  0  0  0  0
   11.1253   46.2798   34.4901 H   0  0  0  0  0  0  0  0  0  0  0  0
   10.9123   46.9061   32.9403 H   0  0  0  0  0  0  0  0  0  0  0  0
    8.7509   45.7207   34.9743 H   0  0  0  0  0  0  0  0  0  0  0  0
    8.5320   46.7527   33.5242 H   0  0  0  0  0  0  0  0  0  0  0  0
    4.7330   44.4169   33.4118 H   0  0  0  0  0  0  0  0  0  0  0  0
    5.5523   42.8680   33.7758 H   0  0  0  0  0  0  0  0  0  0  0  0
    2.7450   44.6594   34.5830 H   0  0  0  0  0  0  0  0  0  0  0  0
    4.6322   42.6626   38.7093 H   0  0  0  0  0  0  0  0  0  0  0  0
    1.3958   44.5344   36.6301 H   0  0  0  0  0  0  0  0  0  0  0  0
    2.3411   43.5527   38.6940 H   0  0  0  0  0  0  0  0  0  0  0  0
    9.8310   40.7399   31.7562 H   0  0  0  0  0  0  0  0  0  0  0  0
   11.3993   41.5454   31.4727 H   0  0  0  0  0  0  0  0  0  0  0  0
   11.6990   39.5089   30.3489 H   0  0  0  0  0  0  0  0  0  0  0  0
   10.1131   38.2591   32.6665 H   0  0  0  0  0  0  0  0  0  0  0  0
   13.6800   37.4627   31.2265 H   0  0  0  0  0  0  0  0  0  0  0  0
    8.8953   38.6911   30.8892 H   0  0  0  0  0  0  0  0  0  0  0  0
   11.2830   36.3061   32.4930 H   0  0  0  0  0  0  0  0  0  0  0  0
   11.8858   36.9590   29.7593 H   0  0  0  0  0  0  0  0  0  0  0  0
   12.3360   38.3600   34.7441 H   0  0  0  0  0  0  0  0  0  0  0  0
   16.7572   34.1793   32.4621 H   0  0  0  0  0  0  0  0  0  0  0  0
   15.3528   35.7357   37.5140 H   0  0  0  0  0  0  0  0  0  0  0  0
   16.6362   34.5318   37.1416 H   0  0  0  0  0  0  0  0  0  0  0  0
  1  2  2  0
  1  3  1  0
  3  4  1  0
  4  5  1  0
  6  1  1  0
  7  6  1  0
  6  8  1  0
  8  9  1  0
  9 10  1  0
  9 11  2  0
 10 12  1  0
 12 13  1  0
 13 14  2  0
 15 13  1  0
 14 16  1  0
 14 17  1  0
 18 15  2  0
 16 19  1  0
 16 20  2  0
 17 21  2  0
 21 18  1  0
  4 22  2  0
  4 23  1  0
 24 23  1  0
 24 25  1  0
 25 26  1  0
 25 27  1  0
 26 28  1  0
 27 29  1  0
 27 30  1  0
 30 28  1  0
 28 31  1  0
 30 32  1  0
 33 31  1  0
 34 31  1  0
 35 33  2  0
 33 36  1  0
 37 34  2  0
 38 35  1  0
 36 39  2  0
 36 37  1  0
 40 38  2  0
 40 39  1  0
 39 41  1  0
  6 42  1  6
  7 43  1  0
  7 44  1  0
  8 45  1  0
  8 46  1  0
 12 47  1  0
 12 48  1  0
 15 49  1  0
 17 50  1  0
 18 51  1  0
 21 52  1  0
 24 53  1  0
 24 54  1  0
 25 55  1  0
 27 56  1  0
 28 57  1  0
 29 58  1  0
 30 59  1  0
 32 60  1  0
 34 61  1  0
 38 62  1  0
 41 63  1  0
 41 64  1  0
M  CHG  3   5  -1  16   1  19  -1
M  END
>  <EmbedRMS>  (95) 
0.08818702178323705

$$$$

     RDKit          3D

 64 67  0  0  0  0  0  0  0  0999 V2000
   10.2859   43.7721   33.8047 C   0  0  0  0  0  0  0  0  0  0  0  0
   11.4084   43.5886   34.3611 O   0  0  0  0  0  0  0  0  0  0  0  0
    9.3672   42.7311   33.6995 O   0  0  0  0  0  0  0  0  0  0  0  0
    9.8851   41.2344   34.2845 P   0  0  0  0  0  5  0  0  0  0  0  0
   10.3655   41.4703   35.8749 O   0  0  0  0  0  1  0  0  0  0  0  0
    9.9530   45.1148   33.2530 C   0  0  2  0  0  0  0  0  0  0  0  0
   11.0713   46.0332   33.4769 N   0  0  0  0  0  0  0  0  0  0  0  0
    8.6595   45.6653   33.8875 C   0  0  0  0  0  0  0  0  0  0  0  0
    8.7888   45.8563   35.3698 C   0  0  0  0  0  0  0  0  0  0  0  0
    9.4404   46.9903   35.8612 O   0  0  0  0  0  0  0  0  0  0  0  0
    8.3441   44.9770   36.1575 O   0  0  0  0  0  0  0  0  0  0  0  0
    9.6493   47.2173   37.2526 C   0  0  0  0  0  0  0  0  0  0  0  0
   10.4420   48.4846   37.4774 C   0  0  0  0  0  0  0  0  0  0  0  0
   10.2872   49.2582   38.6582 C   0  0  0  0  0  0  0  0  0  0  0  0
   11.3811   48.8950   36.5101 C   0  0  0  0  0  0  0  0  0  0  0  0
    9.4274   48.8346   39.7306 N   0  0  0  0  0  4  0  0  0  0  0  0
   11.0065   50.4597   38.7923 C   0  0  0  0  0  0  0  0  0  0  0  0
   12.0990   50.0807   36.6715 C   0  0  0  0  0  0  0  0  0  0  0  0
    9.4142   47.5185   40.1320 O   0  0  0  0  0  1  0  0  0  0  0  0
    8.8345   49.6821   40.4299 O   0  0  0  0  0  0  0  0  0  0  0  0
   11.9031   50.8677   37.8043 C   0  0  0  0  0  0  0  0  0  0  0  0
    8.8077   40.1914   34.2088 O   0  0  0  0  0  0  0  0  0  0  0  0
   11.2369   40.7904   33.3690 O   0  0  0  0  0  0  0  0  0  0  0  0
   10.9155   40.6897   31.9960 C   0  0  0  0  0  0  0  0  0  0  0  0
   11.5270   39.3898   31.4374 C   0  0  0  0  0  0  0  0  0  0  0  0
   12.7508   39.0916   32.0838 O   0  0  0  0  0  0  0  0  0  0  0  0
   10.6122   38.1916   31.6452 C   0  0  0  0  0  0  0  0  0  0  0  0
   12.9429   37.6852   32.0295 C   0  0  0  0  0  0  0  0  0  0  0  0
    9.6070   38.0858   30.6603 O   0  0  0  0  0  0  0  0  0  0  0  0
   11.5845   37.0186   31.6880 C   0  0  0  0  0  0  0  0  0  0  0  0
   13.4899   37.2163   33.3250 N   0  0  0  0  0  0  0  0  0  0  0  0
   11.6201   36.3062   30.4693 O   0  0  0  0  0  0  0  0  0  0  0  0
   14.4759   36.3263   33.5738 C   0  0  0  0  0  0  0  0  0  0  0  0
   13.1176   37.6307   34.5699 C   0  0  0  0  0  0  0  0  0  0  0  0
   15.2065   35.6139   32.6746 N   0  0  0  0  0  0  0  0  0  0  0  0
   14.6731   36.2267   34.9191 C   0  0  0  0  0  0  0  0  0  0  0  0
   13.8224   37.0450   35.5792 N   0  0  0  0  0  0  0  0  0  0  0  0
   16.1640   34.7596   33.1551 C   0  0  0  0  0  0  0  0  0  0  0  0
   15.6517   35.3489   35.4136 C   0  0  0  0  0  0  0  0  0  0  0  0
   16.3795   34.6309   34.5046 N   0  0  0  0  0  0  0  0  0  0  0  0
   15.9006   35.1931   36.8094 N   0  0  0  0  0  0  0  0  0  0  0  0
    9.7842   45.0052   32.1581 H   0  0  0  0  0  0  0  0  0  0  0  0
   11.8826   45.7137   32.8978 H   0  0  0  0  0  0  0  0  0  0  0  0
   10.8099   46.9725   33.0977 H   0  0  0  0  0  0  0  0  0  0  0  0
    7.8125   44.9776   33.6712 H   0  0  0  0  0  0  0  0  0  0  0  0
    8.4075   46.6425   33.4221 H   0  0  0  0  0  0  0  0  0  0  0  0
    8.6536   47.2936   37.7392 H   0  0  0  0  0  0  0  0  0  0  0  0
   10.2089   46.3627   37.6904 H   0  0  0  0  0  0  0  0  0  0  0  0
   11.5545   48.3033   35.6200 H   0  0  0  0  0  0  0  0  0  0  0  0
   10.8932   51.0694   39.6799 H   0  0  0  0  0  0  0  0  0  0  0  0
   12.8076   50.3910   35.9144 H   0  0  0  0  0  0  0  0  0  0  0  0
   12.4594   51.7883   37.9254 H   0  0  0  0  0  0  0  0  0  0  0  0
    9.8254   40.7190   31.7587 H   0  0  0  0  0  0  0  0  0  0  0  0
   11.3825   41.5526   31.4746 H   0  0  0  0  0  0  0  0  0  0  0  0
   11.7318   39.5338   30.3520 H   0  0  0  0  0  0  0  0  0  0  0  0
   10.1215   38.2682   32.6413 H   0  0  0  0  0  0  0  0  0  0  0  0
   13.6882   37.4707   31.2319 H   0  0  0  0  0  0  0  0  0  0  0  0
   10.0257   38.1751   29.7656 H   0  0  0  0  0  0  0  0  0  0  0  0
   11.2795   36.3123   32.4916 H   0  0  0  0  0  0  0  0  0  0  0  0
   11.9871   36.9099   29.7715 H   0  0  0  0  0  0  0  0  0  0  0  0
   12.3365   38.3595   34.7453 H   0  0  0  0  0  0  0  0  0  0  0  0
   16.7576   34.1794   32.4622 H   0  0  0  0  0  0  0  0  0  0  0  0
   15.3532   35.7351   37.5144 H   0  0  0  0  0  0  0  0  0  0  0  0
   16.6368   34.5316   37.1418 H   0  0  0  0  0  0  0  0  0  0  0  0
  1  2  2  0
  1  3  1  0
  3  4  1  0
  4  5  1  0
  6  1  1  0
  7  6  1  0
  6  8  1  0
  8  9  1  0
  9 10  1  0
  9 11  2  0
 10 12  1  0
 12 13  1  0
 13 14  2  0
 15 13  1  0
 14 16  1  0
 14 17  1  0
 18 15  2  0
 16 19  1  0
 16 20  2  0
 17 21  2  0
 21 18  1  0
  4 22  2  0
  4 23  1  0
 24 23  1  0
 24 25  1  0
 25 26  1  0
 25 27  1  0
 26 28  1  0
 27 29  1  0
 27 30  1  0
 30 28  1  0
 28 31  1  0
 30 32  1  0
 33 31  1  0
 34 31  1  0
 35 33  2  0
 33 36  1  0
 37 34  2  0
 38 35  1  0
 36 39  2  0
 36 37  1  0
 40 38  2  0
 40 39  1  0
 39 41  1  0
  6 42  1  6
  7 43  1  0
  7 44  1  0
  8 45  1  0
  8 46  1  0
 12 47  1  0
 12 48  1  0
 15 49  1  0
 17 50  1  0
 18 51  1  0
 21 52  1  0
 24 53  1  0
 24 54  1  0
 25 55  1  0
 27 56  1  0
 28 57  1  0
 29 58  1  0
 30 59  1  0
 32 60  1  0
 34 61  1  0
 38 62  1  0
 41 63  1  0
 41 64  1  0
M  CHG  3   5  -1  16   1  19  -1
M  END
>  <EmbedRMS>  (96) 
0.08699373365954177

$$$$

     RDKit          3D

 64 67  0  0  0  0  0  0  0  0999 V2000
   10.2810   43.7760   33.8071 C   0  0  0  0  0  0  0  0  0  0  0  0
   11.4065   43.5926   34.3581 O   0  0  0  0  0  0  0  0  0  0  0  0
    9.3715   42.7284   33.6958 O   0  0  0  0  0  0  0  0  0  0  0  0
    9.8874   41.2335   34.2843 P   0  0  0  0  0  5  0  0  0  0  0  0
   10.3662   41.4711   35.8748 O   0  0  0  0  0  1  0  0  0  0  0  0
    9.9509   45.1177   33.2452 C   0  0  2  0  0  0  0  0  0  0  0  0
   11.0736   46.0261   33.4861 N   0  0  0  0  0  0  0  0  0  0  0  0
    8.6499   45.6902   33.8560 C   0  0  0  0  0  0  0  0  0  0  0  0
    7.4274   45.0672   33.2524 C   0  0  0  0  0  0  0  0  0  0  0  0
    6.9248   43.8795   33.7885 O   0  0  0  0  0  0  0  0  0  0  0  0
    6.8880   45.5959   32.2422 O   0  0  0  0  0  0  0  0  0  0  0  0
    5.8084   43.1880   33.2386 C   0  0  0  0  0  0  0  0  0  0  0  0
    5.6880   41.8291   33.8832 C   0  0  0  0  0  0  0  0  0  0  0  0
    5.6572   41.6610   35.2940 C   0  0  0  0  0  0  0  0  0  0  0  0
    5.6536   40.6906   33.0559 C   0  0  0  0  0  0  0  0  0  0  0  0
    5.6687   42.7849   36.1931 N   0  0  0  0  0  4  0  0  0  0  0  0
    5.6298   40.3594   35.8280 C   0  0  0  0  0  0  0  0  0  0  0  0
    5.6093   39.4095   33.6070 C   0  0  0  0  0  0  0  0  0  0  0  0
    4.9396   43.9167   35.9118 O   0  0  0  0  0  1  0  0  0  0  0  0
    6.2135   42.6855   37.3121 O   0  0  0  0  0  0  0  0  0  0  0  0
    5.6031   39.2441   34.9902 C   0  0  0  0  0  0  0  0  0  0  0  0
    8.8104   40.1906   34.2091 O   0  0  0  0  0  0  0  0  0  0  0  0
   11.2383   40.7889   33.3684 O   0  0  0  0  0  0  0  0  0  0  0  0
   10.9151   40.6877   31.9955 C   0  0  0  0  0  0  0  0  0  0  0  0
   11.5257   39.3870   31.4365 C   0  0  0  0  0  0  0  0  0  0  0  0
   12.7490   39.0892   32.0816 O   0  0  0  0  0  0  0  0  0  0  0  0
   10.6118   38.1893   31.6464 C   0  0  0  0  0  0  0  0  0  0  0  0
   12.9370   37.6826   32.0301 C   0  0  0  0  0  0  0  0  0  0  0  0
    9.6144   38.0839   30.6542 O   0  0  0  0  0  0  0  0  0  0  0  0
   11.5789   37.0136   31.7015 C   0  0  0  0  0  0  0  0  0  0  0  0
   13.4905   37.2169   33.3242 N   0  0  0  0  0  0  0  0  0  0  0  0
   11.6212   36.3253   30.4726 O   0  0  0  0  0  0  0  0  0  0  0  0
   14.4762   36.3267   33.5731 C   0  0  0  0  0  0  0  0  0  0  0  0
   13.1180   37.6308   34.5694 C   0  0  0  0  0  0  0  0  0  0  0  0
   15.2065   35.6137   32.6740 N   0  0  0  0  0  0  0  0  0  0  0  0
   14.6735   36.2270   34.9185 C   0  0  0  0  0  0  0  0  0  0  0  0
   13.8228   37.0451   35.5787 N   0  0  0  0  0  0  0  0  0  0  0  0
   16.1639   34.7593   33.1547 C   0  0  0  0  0  0  0  0  0  0  0  0
   15.6518   35.3490   35.4132 C   0  0  0  0  0  0  0  0  0  0  0  0
   16.3794   34.6309   34.5042 N   0  0  0  0  0  0  0  0  0  0  0  0
   15.9005   35.1931   36.8090 N   0  0  0  0  0  0  0  0  0  0  0  0
    9.8259   45.0056   32.1447 H   0  0  0  0  0  0  0  0  0  0  0  0
   11.1006   46.2889   34.4993 H   0  0  0  0  0  0  0  0  0  0  0  0
   10.9154   46.9054   32.9417 H   0  0  0  0  0  0  0  0  0  0  0  0
    8.6041   46.7870   33.6776 H   0  0  0  0  0  0  0  0  0  0  0  0
    8.6397   45.5368   34.9575 H   0  0  0  0  0  0  0  0  0  0  0  0
    5.9509   43.0874   32.1398 H   0  0  0  0  0  0  0  0  0  0  0  0
    4.8781   43.7711   33.4018 H   0  0  0  0  0  0  0  0  0  0  0  0
    5.6751   40.7909   31.9777 H   0  0  0  0  0  0  0  0  0  0  0  0
    5.6128   40.2080   36.9000 H   0  0  0  0  0  0  0  0  0  0  0  0
    5.5894   38.5426   32.9593 H   0  0  0  0  0  0  0  0  0  0  0  0
    5.5750   38.2490   35.4151 H   0  0  0  0  0  0  0  0  0  0  0  0
    9.8246   40.7172   31.7596 H   0  0  0  0  0  0  0  0  0  0  0  0
   11.3817   41.5502   31.4732 H   0  0  0  0  0  0  0  0  0  0  0  0
   11.7283   39.5288   30.3504 H   0  0  0  0  0  0  0  0  0  0  0  0
   10.1134   38.2719   32.6382 H   0  0  0  0  0  0  0  0  0  0  0  0
   13.6722   37.4633   31.2239 H   0  0  0  0  0  0  0  0  0  0  0  0
   10.0528   38.1086   29.7642 H   0  0  0  0  0  0  0  0  0  0  0  0
   11.2642   36.3134   32.5108 H   0  0  0  0  0  0  0  0  0  0  0  0
   12.1543   35.5031   30.6316 H   0  0  0  0  0  0  0  0  0  0  0  0
   12.3359   38.3585   34.7450 H   0  0  0  0  0  0  0  0  0  0  0  0
   16.7573   34.1789   32.4619 H   0  0  0  0  0  0  0  0  0  0  0  0
   16.6365   34.5314   37.1415 H   0  0  0  0  0  0  0  0  0  0  0  0
   15.3532   35.7353   37.5139 H   0  0  0  0  0  0  0  0  0  0  0  0
  1  2  2  0
  1  3  1  0
  3  4  1  0
  4  5  1  0
  6  1  1  0
  7  6  1  0
  6  8  1  0
  8  9  1  0
  9 10  1  0
  9 11  2  0
 10 12  1  0
 12 13  1  0
 13 14  2  0
 15 13  1  0
 14 16  1  0
 14 17  1  0
 18 15  2  0
 16 19  1  0
 16 20  2  0
 17 21  2  0
 21 18  1  0
  4 22  2  0
  4 23  1  0
 24 23  1  0
 24 25  1  0
 25 26  1  0
 25 27  1  0
 26 28  1  0
 27 29  1  0
 27 30  1  0
 30 28  1  0
 28 31  1  0
 30 32  1  0
 33 31  1  0
 34 31  1  0
 35 33  2  0
 33 36  1  0
 37 34  2  0
 38 35  1  0
 36 39  2  0
 36 37  1  0
 40 38  2  0
 40 39  1  0
 39 41  1  0
  6 42  1  6
  7 43  1  0
  7 44  1  0
  8 45  1  0
  8 46  1  0
 12 47  1  0
 12 48  1  0
 15 49  1  0
 17 50  1  0
 18 51  1  0
 21 52  1  0
 24 53  1  0
 24 54  1  0
 25 55  1  0
 27 56  1  0
 28 57  1  0
 29 58  1  0
 30 59  1  0
 32 60  1  0
 34 61  1  0
 38 62  1  0
 41 63  1  0
 41 64  1  0
M  CHG  3   5  -1  16   1  19  -1
M  END
>  <EmbedRMS>  (97) 
0.08795989086510174

$$$$

     RDKit          3D

 64 67  0  0  0  0  0  0  0  0999 V2000
   10.2808   43.7760   33.8097 C   0  0  0  0  0  0  0  0  0  0  0  0
   11.4068   43.5916   34.3592 O   0  0  0  0  0  0  0  0  0  0  0  0
    9.3681   42.7300   33.6999 O   0  0  0  0  0  0  0  0  0  0  0  0
    9.8865   41.2339   34.2841 P   0  0  0  0  0  5  0  0  0  0  0  0
   10.3669   41.4697   35.8746 O   0  0  0  0  0  1  0  0  0  0  0  0
    9.9526   45.1158   33.2449 C   0  0  2  0  0  0  0  0  0  0  0  0
   11.0746   46.0260   33.4816 N   0  0  0  0  0  0  0  0  0  0  0  0
    8.6540   45.6905   33.8532 C   0  0  0  0  0  0  0  0  0  0  0  0
    7.4406   44.9333   33.4060 C   0  0  0  0  0  0  0  0  0  0  0  0
    7.0838   44.9451   32.0531 O   0  0  0  0  0  0  0  0  0  0  0  0
    6.7650   44.2800   34.2469 O   0  0  0  0  0  0  0  0  0  0  0  0
    5.9369   44.2755   31.5331 C   0  0  0  0  0  0  0  0  0  0  0  0
    4.6729   45.0152   31.9031 C   0  0  0  0  0  0  0  0  0  0  0  0
    4.2492   46.1870   31.2171 C   0  0  0  0  0  0  0  0  0  0  0  0
    3.8824   44.5098   32.9516 C   0  0  0  0  0  0  0  0  0  0  0  0
    5.0101   46.7634   30.1388 N   0  0  0  0  0  4  0  0  0  0  0  0
    3.0346   46.7928   31.5869 C   0  0  0  0  0  0  0  0  0  0  0  0
    2.6892   45.1366   33.3113 C   0  0  0  0  0  0  0  0  0  0  0  0
    4.3677   47.4642   29.1440 O   0  0  0  0  0  1  0  0  0  0  0  0
    6.2572   46.7819   30.1729 O   0  0  0  0  0  0  0  0  0  0  0  0
    2.2644   46.2736   32.6280 C   0  0  0  0  0  0  0  0  0  0  0  0
    8.8086   40.1913   34.2086 O   0  0  0  0  0  0  0  0  0  0  0  0
   11.2377   40.7901   33.3677 O   0  0  0  0  0  0  0  0  0  0  0  0
   10.9153   40.6882   31.9949 C   0  0  0  0  0  0  0  0  0  0  0  0
   11.5260   39.3871   31.4364 C   0  0  0  0  0  0  0  0  0  0  0  0
   12.7491   39.0893   32.0818 O   0  0  0  0  0  0  0  0  0  0  0  0
   10.6122   38.1893   31.6461 C   0  0  0  0  0  0  0  0  0  0  0  0
   12.9373   37.6827   32.0301 C   0  0  0  0  0  0  0  0  0  0  0  0
    9.6149   38.0839   30.6538 O   0  0  0  0  0  0  0  0  0  0  0  0
   11.5792   37.0137   31.7014 C   0  0  0  0  0  0  0  0  0  0  0  0
   13.4906   37.2170   33.3242 N   0  0  0  0  0  0  0  0  0  0  0  0
   11.6216   36.3252   30.4725 O   0  0  0  0  0  0  0  0  0  0  0  0
   14.4763   36.3266   33.5731 C   0  0  0  0  0  0  0  0  0  0  0  0
   13.1182   37.6308   34.5694 C   0  0  0  0  0  0  0  0  0  0  0  0
   15.2065   35.6137   32.6740 N   0  0  0  0  0  0  0  0  0  0  0  0
   14.6736   36.2270   34.9185 C   0  0  0  0  0  0  0  0  0  0  0  0
   13.8229   37.0451   35.5787 N   0  0  0  0  0  0  0  0  0  0  0  0
   16.1639   34.7593   33.1547 C   0  0  0  0  0  0  0  0  0  0  0  0
   15.6519   35.3489   35.4132 C   0  0  0  0  0  0  0  0  0  0  0  0
   16.3794   34.6308   34.5042 N   0  0  0  0  0  0  0  0  0  0  0  0
   15.9006   35.1931   36.8090 N   0  0  0  0  0  0  0  0  0  0  0  0
    9.8246   44.9997   32.1455 H   0  0  0  0  0  0  0  0  0  0  0  0
   10.9083   46.9081   32.9442 H   0  0  0  0  0  0  0  0  0  0  0  0
   11.1105   46.2835   34.4958 H   0  0  0  0  0  0  0  0  0  0  0  0
    8.7191   45.6867   34.9641 H   0  0  0  0  0  0  0  0  0  0  0  0
    8.5307   46.7463   33.5292 H   0  0  0  0  0  0  0  0  0  0  0  0
    5.9167   43.2251   31.8989 H   0  0  0  0  0  0  0  0  0  0  0  0
    6.0222   44.2158   30.4279 H   0  0  0  0  0  0  0  0  0  0  0  0
    4.1847   43.6191   33.4885 H   0  0  0  0  0  0  0  0  0  0  0  0
    2.6889   47.6829   31.0768 H   0  0  0  0  0  0  0  0  0  0  0  0
    2.0896   44.7357   34.1184 H   0  0  0  0  0  0  0  0  0  0  0  0
    1.3362   46.7559   32.9066 H   0  0  0  0  0  0  0  0  0  0  0  0
   11.3822   41.5504   31.4723 H   0  0  0  0  0  0  0  0  0  0  0  0
    9.8250   40.7180   31.7584 H   0  0  0  0  0  0  0  0  0  0  0  0
   11.7290   39.5287   30.3503 H   0  0  0  0  0  0  0  0  0  0  0  0
   10.1139   38.2719   32.6379 H   0  0  0  0  0  0  0  0  0  0  0  0
   13.6725   37.4636   31.2240 H   0  0  0  0  0  0  0  0  0  0  0  0
   10.0535   38.1086   29.7638 H   0  0  0  0  0  0  0  0  0  0  0  0
   11.2645   36.3135   32.5107 H   0  0  0  0  0  0  0  0  0  0  0  0
   12.1548   35.5032   30.6316 H   0  0  0  0  0  0  0  0  0  0  0  0
   12.3362   38.3586   34.7450 H   0  0  0  0  0  0  0  0  0  0  0  0
   16.7573   34.1788   32.4619 H   0  0  0  0  0  0  0  0  0  0  0  0
   15.3533   35.7353   37.5139 H   0  0  0  0  0  0  0  0  0  0  0  0
   16.6366   34.5314   37.1415 H   0  0  0  0  0  0  0  0  0  0  0  0
  1  2  2  0
  1  3  1  0
  3  4  1  0
  4  5  1  0
  6  1  1  0
  7  6  1  0
  6  8  1  0
  8  9  1  0
  9 10  1  0
  9 11  2  0
 10 12  1  0
 12 13  1  0
 13 14  2  0
 15 13  1  0
 14 16  1  0
 14 17  1  0
 18 15  2  0
 16 19  1  0
 16 20  2  0
 17 21  2  0
 21 18  1  0
  4 22  2  0
  4 23  1  0
 24 23  1  0
 24 25  1  0
 25 26  1  0
 25 27  1  0
 26 28  1  0
 27 29  1  0
 27 30  1  0
 30 28  1  0
 28 31  1  0
 30 32  1  0
 33 31  1  0
 34 31  1  0
 35 33  2  0
 33 36  1  0
 37 34  2  0
 38 35  1  0
 36 39  2  0
 36 37  1  0
 40 38  2  0
 40 39  1  0
 39 41  1  0
  6 42  1  6
  7 43  1  0
  7 44  1  0
  8 45  1  0
  8 46  1  0
 12 47  1  0
 12 48  1  0
 15 49  1  0
 17 50  1  0
 18 51  1  0
 21 52  1  0
 24 53  1  0
 24 54  1  0
 25 55  1  0
 27 56  1  0
 28 57  1  0
 29 58  1  0
 30 59  1  0
 32 60  1  0
 34 61  1  0
 38 62  1  0
 41 63  1  0
 41 64  1  0
M  CHG  3   5  -1  16   1  19  -1
M  END
>  <EmbedRMS>  (98) 
0.08785229348846271

$$$$

     RDKit          3D

 64 67  0  0  0  0  0  0  0  0999 V2000
   10.2830   43.7754   33.8075 C   0  0  0  0  0  0  0  0  0  0  0  0
   11.4086   43.5916   34.3578 O   0  0  0  0  0  0  0  0  0  0  0  0
    9.3669   42.7318   33.7012 O   0  0  0  0  0  0  0  0  0  0  0  0
    9.8865   41.2345   34.2838 P   0  0  0  0  0  5  0  0  0  0  0  0
   10.3666   41.4694   35.8744 O   0  0  0  0  0  1  0  0  0  0  0  0
    9.9536   45.1114   33.2433 C   0  0  2  0  0  0  0  0  0  0  0  0
   11.0723   46.0265   33.4848 N   0  0  0  0  0  0  0  0  0  0  0  0
    8.6392   45.6427   33.8538 C   0  0  0  0  0  0  0  0  0  0  0  0
    8.2440   46.9559   33.2539 C   0  0  0  0  0  0  0  0  0  0  0  0
    8.3846   48.1270   34.0068 O   0  0  0  0  0  0  0  0  0  0  0  0
    7.8092   46.9981   32.0704 O   0  0  0  0  0  0  0  0  0  0  0  0
    8.1294   49.4272   33.4795 C   0  0  0  0  0  0  0  0  0  0  0  0
    9.2139   49.8272   32.5054 C   0  0  0  0  0  0  0  0  0  0  0  0
   10.5896   49.8635   32.8694 C   0  0  0  0  0  0  0  0  0  0  0  0
    8.8468   50.1214   31.1791 C   0  0  0  0  0  0  0  0  0  0  0  0
   11.0402   49.5780   34.2079 N   0  0  0  0  0  4  0  0  0  0  0  0
   11.5475   50.1658   31.8844 C   0  0  0  0  0  0  0  0  0  0  0  0
    9.8140   50.4333   30.2237 C   0  0  0  0  0  0  0  0  0  0  0  0
   12.3069   49.0812   34.4145 O   0  0  0  0  0  1  0  0  0  0  0  0
   10.3653   49.9207   35.1997 O   0  0  0  0  0  0  0  0  0  0  0  0
   11.1616   50.4514   30.5745 C   0  0  0  0  0  0  0  0  0  0  0  0
    8.8091   40.1914   34.2078 O   0  0  0  0  0  0  0  0  0  0  0  0
   11.2390   40.7910   33.3682 O   0  0  0  0  0  0  0  0  0  0  0  0
   10.9195   40.6896   31.9946 C   0  0  0  0  0  0  0  0  0  0  0  0
   11.5171   39.3801   31.4397 C   0  0  0  0  0  0  0  0  0  0  0  0
   12.7479   39.0861   32.0734 O   0  0  0  0  0  0  0  0  0  0  0  0
   10.6031   38.1891   31.6666 C   0  0  0  0  0  0  0  0  0  0  0  0
   12.9335   37.6797   32.0280 C   0  0  0  0  0  0  0  0  0  0  0  0
    9.6397   38.0777   30.6456 O   0  0  0  0  0  0  0  0  0  0  0  0
   11.5739   37.0154   31.7057 C   0  0  0  0  0  0  0  0  0  0  0  0
   13.4903   37.2178   33.3231 N   0  0  0  0  0  0  0  0  0  0  0  0
   11.6211   36.3376   30.4695 O   0  0  0  0  0  0  0  0  0  0  0  0
   14.4761   36.3273   33.5725 C   0  0  0  0  0  0  0  0  0  0  0  0
   13.1179   37.6316   34.5684 C   0  0  0  0  0  0  0  0  0  0  0  0
   15.2063   35.6139   32.6737 N   0  0  0  0  0  0  0  0  0  0  0  0
   14.6733   36.2277   34.9180 C   0  0  0  0  0  0  0  0  0  0  0  0
   13.8225   37.0459   35.5779 N   0  0  0  0  0  0  0  0  0  0  0  0
   16.1636   34.7594   33.1546 C   0  0  0  0  0  0  0  0  0  0  0  0
   15.6515   35.3494   35.4129 C   0  0  0  0  0  0  0  0  0  0  0  0
   16.3791   34.6311   34.5041 N   0  0  0  0  0  0  0  0  0  0  0  0
   15.9001   35.1935   36.8088 N   0  0  0  0  0  0  0  0  0  0  0  0
    9.8212   44.9848   32.1455 H   0  0  0  0  0  0  0  0  0  0  0  0
   11.0646   46.3413   34.4831 H   0  0  0  0  0  0  0  0  0  0  0  0
   10.9516   46.8742   32.8849 H   0  0  0  0  0  0  0  0  0  0  0  0
    8.7480   45.7567   34.9548 H   0  0  0  0  0  0  0  0  0  0  0  0
    7.8180   44.9156   33.6708 H   0  0  0  0  0  0  0  0  0  0  0  0
    8.0858   50.1611   34.3095 H   0  0  0  0  0  0  0  0  0  0  0  0
    7.1232   49.4400   33.0052 H   0  0  0  0  0  0  0  0  0  0  0  0
    7.8071   50.0976   30.8767 H   0  0  0  0  0  0  0  0  0  0  0  0
   12.6003   50.1951   32.1345 H   0  0  0  0  0  0  0  0  0  0  0  0
    9.5177   50.6544   29.2064 H   0  0  0  0  0  0  0  0  0  0  0  0
   11.9104   50.6893   29.8300 H   0  0  0  0  0  0  0  0  0  0  0  0
    9.8315   40.7397   31.7549 H   0  0  0  0  0  0  0  0  0  0  0  0
   11.4008   41.5437   31.4722 H   0  0  0  0  0  0  0  0  0  0  0  0
   11.6983   39.5042   30.3470 H   0  0  0  0  0  0  0  0  0  0  0  0
   10.1090   38.2632   32.6649 H   0  0  0  0  0  0  0  0  0  0  0  0
   13.6656   37.4541   31.2207 H   0  0  0  0  0  0  0  0  0  0  0  0
    8.8965   38.6900   30.8852 H   0  0  0  0  0  0  0  0  0  0  0  0
   11.2846   36.3060   32.5175 H   0  0  0  0  0  0  0  0  0  0  0  0
   10.8523   35.7095   30.4590 H   0  0  0  0  0  0  0  0  0  0  0  0
   12.3353   38.3588   34.7439 H   0  0  0  0  0  0  0  0  0  0  0  0
   16.7570   34.1788   32.4619 H   0  0  0  0  0  0  0  0  0  0  0  0
   15.3529   35.7358   37.5136 H   0  0  0  0  0  0  0  0  0  0  0  0
   16.6360   34.5316   37.1413 H   0  0  0  0  0  0  0  0  0  0  0  0
  1  2  2  0
  1  3  1  0
  3  4  1  0
  4  5  1  0
  6  1  1  0
  7  6  1  0
  6  8  1  0
  8  9  1  0
  9 10  1  0
  9 11  2  0
 10 12  1  0
 12 13  1  0
 13 14  2  0
 15 13  1  0
 14 16  1  0
 14 17  1  0
 18 15  2  0
 16 19  1  0
 16 20  2  0
 17 21  2  0
 21 18  1  0
  4 22  2  0
  4 23  1  0
 24 23  1  0
 24 25  1  0
 25 26  1  0
 25 27  1  0
 26 28  1  0
 27 29  1  0
 27 30  1  0
 30 28  1  0
 28 31  1  0
 30 32  1  0
 33 31  1  0
 34 31  1  0
 35 33  2  0
 33 36  1  0
 37 34  2  0
 38 35  1  0
 36 39  2  0
 36 37  1  0
 40 38  2  0
 40 39  1  0
 39 41  1  0
  6 42  1  6
  7 43  1  0
  7 44  1  0
  8 45  1  0
  8 46  1  0
 12 47  1  0
 12 48  1  0
 15 49  1  0
 17 50  1  0
 18 51  1  0
 21 52  1  0
 24 53  1  0
 24 54  1  0
 25 55  1  0
 27 56  1  0
 28 57  1  0
 29 58  1  0
 30 59  1  0
 32 60  1  0
 34 61  1  0
 38 62  1  0
 41 63  1  0
 41 64  1  0
M  CHG  3   5  -1  16   1  19  -1
M  END
>  <EmbedRMS>  (99) 
0.08914457786011677

$$$$

     RDKit          3D

 64 67  0  0  0  0  0  0  0  0999 V2000
   10.2874   43.7710   33.8018 C   0  0  0  0  0  0  0  0  0  0  0  0
   11.4095   43.5877   34.3590 O   0  0  0  0  0  0  0  0  0  0  0  0
    9.3681   42.7305   33.6977 O   0  0  0  0  0  0  0  0  0  0  0  0
    9.8856   41.2341   34.2833 P   0  0  0  0  0  5  0  0  0  0  0  0
   10.3659   41.4709   35.8739 O   0  0  0  0  0  1  0  0  0  0  0  0
    9.9518   45.1157   33.2559 C   0  0  2  0  0  0  0  0  0  0  0  0
   11.0706   46.0335   33.4781 N   0  0  0  0  0  0  0  0  0  0  0  0
    8.6626   45.6647   33.9005 C   0  0  0  0  0  0  0  0  0  0  0  0
    8.7962   45.8322   35.3851 C   0  0  0  0  0  0  0  0  0  0  0  0
    8.5668   44.7329   36.2220 O   0  0  0  0  0  0  0  0  0  0  0  0
    9.1429   46.9472   35.8621 O   0  0  0  0  0  0  0  0  0  0  0  0
    8.7283   44.7712   37.6404 C   0  0  0  0  0  0  0  0  0  0  0  0
    7.4431   45.1144   38.3693 C   0  0  0  0  0  0  0  0  0  0  0  0
    7.2992   44.8341   39.7561 C   0  0  0  0  0  0  0  0  0  0  0  0
    6.3650   45.7110   37.6815 C   0  0  0  0  0  0  0  0  0  0  0  0
    8.3718   44.2644   40.5291 N   0  0  0  0  0  4  0  0  0  0  0  0
    6.0756   45.1123   40.3925 C   0  0  0  0  0  0  0  0  0  0  0  0
    5.1664   45.9931   38.3379 C   0  0  0  0  0  0  0  0  0  0  0  0
    9.6677   44.6900   40.3506 O   0  0  0  0  0  1  0  0  0  0  0  0
    8.1176   43.5040   41.4862 O   0  0  0  0  0  0  0  0  0  0  0  0
    5.0196   45.6888   39.6883 C   0  0  0  0  0  0  0  0  0  0  0  0
    8.8076   40.1916   34.2086 O   0  0  0  0  0  0  0  0  0  0  0  0
   11.2371   40.7896   33.3666 O   0  0  0  0  0  0  0  0  0  0  0  0
   10.9145   40.6849   31.9936 C   0  0  0  0  0  0  0  0  0  0  0  0
   11.5167   39.3773   31.4394 C   0  0  0  0  0  0  0  0  0  0  0  0
   12.7473   39.0854   32.0739 O   0  0  0  0  0  0  0  0  0  0  0  0
   10.6047   38.1867   31.6670 C   0  0  0  0  0  0  0  0  0  0  0  0
   12.9346   37.6790   32.0282 C   0  0  0  0  0  0  0  0  0  0  0  0
    9.6379   38.0918   30.6489 O   0  0  0  0  0  0  0  0  0  0  0  0
   11.5761   37.0129   31.7057 C   0  0  0  0  0  0  0  0  0  0  0  0
   13.4909   37.2177   33.3233 N   0  0  0  0  0  0  0  0  0  0  0  0
   11.6234   36.3371   30.4684 O   0  0  0  0  0  0  0  0  0  0  0  0
   14.4765   36.3271   33.5727 C   0  0  0  0  0  0  0  0  0  0  0  0
   13.1182   37.6315   34.5685 C   0  0  0  0  0  0  0  0  0  0  0  0
   15.2066   35.6137   32.6739 N   0  0  0  0  0  0  0  0  0  0  0  0
   14.6736   36.2276   34.9182 C   0  0  0  0  0  0  0  0  0  0  0  0
   13.8227   37.0457   35.5781 N   0  0  0  0  0  0  0  0  0  0  0  0
   16.1638   34.7592   33.1548 C   0  0  0  0  0  0  0  0  0  0  0  0
   15.6517   35.3492   35.4131 C   0  0  0  0  0  0  0  0  0  0  0  0
   16.3792   34.6309   34.5043 N   0  0  0  0  0  0  0  0  0  0  0  0
   15.9002   35.1934   36.8090 N   0  0  0  0  0  0  0  0  0  0  0  0
    9.7770   45.0103   32.1615 H   0  0  0  0  0  0  0  0  0  0  0  0
   11.8802   45.7141   32.8966 H   0  0  0  0  0  0  0  0  0  0  0  0
   10.8082   46.9727   33.0992 H   0  0  0  0  0  0  0  0  0  0  0  0
    7.8155   44.9764   33.6895 H   0  0  0  0  0  0  0  0  0  0  0  0
    8.4049   46.6430   33.4393 H   0  0  0  0  0  0  0  0  0  0  0  0
    9.5279   45.4907   37.9189 H   0  0  0  0  0  0  0  0  0  0  0  0
    9.0571   43.7591   37.9574 H   0  0  0  0  0  0  0  0  0  0  0  0
    6.4319   45.9525   36.6307 H   0  0  0  0  0  0  0  0  0  0  0  0
    5.9459   44.8993   41.4462 H   0  0  0  0  0  0  0  0  0  0  0  0
    4.3462   46.4449   37.7948 H   0  0  0  0  0  0  0  0  0  0  0  0
    4.0870   45.9058   40.1931 H   0  0  0  0  0  0  0  0  0  0  0  0
    9.8246   40.7213   31.7568 H   0  0  0  0  0  0  0  0  0  0  0  0
   11.3877   41.5416   31.4679 H   0  0  0  0  0  0  0  0  0  0  0  0
   11.6986   39.5015   30.3468 H   0  0  0  0  0  0  0  0  0  0  0  0
   10.1096   38.2771   32.6629 H   0  0  0  0  0  0  0  0  0  0  0  0
   13.6672   37.4543   31.2213 H   0  0  0  0  0  0  0  0  0  0  0  0
    8.9779   37.4158   30.9533 H   0  0  0  0  0  0  0  0  0  0  0  0
   11.2861   36.3041   32.5177 H   0  0  0  0  0  0  0  0  0  0  0  0
   10.8689   35.6919   30.4657 H   0  0  0  0  0  0  0  0  0  0  0  0
   12.3356   38.3587   34.7439 H   0  0  0  0  0  0  0  0  0  0  0  0
   16.7572   34.1786   32.4621 H   0  0  0  0  0  0  0  0  0  0  0  0
   16.6361   34.5315   37.1415 H   0  0  0  0  0  0  0  0  0  0  0  0
   15.3530   35.7358   37.5138 H   0  0  0  0  0  0  0  0  0  0  0  0
  1  2  2  0
  1  3  1  0
  3  4  1  0
  4  5  1  0
  6  1  1  0
  7  6  1  0
  6  8  1  0
  8  9  1  0
  9 10  1  0
  9 11  2  0
 10 12  1  0
 12 13  1  0
 13 14  2  0
 15 13  1  0
 14 16  1  0
 14 17  1  0
 18 15  2  0
 16 19  1  0
 16 20  2  0
 17 21  2  0
 21 18  1  0
  4 22  2  0
  4 23  1  0
 24 23  1  0
 24 25  1  0
 25 26  1  0
 25 27  1  0
 26 28  1  0
 27 29  1  0
 27 30  1  0
 30 28  1  0
 28 31  1  0
 30 32  1  0
 33 31  1  0
 34 31  1  0
 35 33  2  0
 33 36  1  0
 37 34  2  0
 38 35  1  0
 36 39  2  0
 36 37  1  0
 40 38  2  0
 40 39  1  0
 39 41  1  0
  6 42  1  6
  7 43  1  0
  7 44  1  0
  8 45  1  0
  8 46  1  0
 12 47  1  0
 12 48  1  0
 15 49  1  0
 17 50  1  0
 18 51  1  0
 21 52  1  0
 24 53  1  0
 24 54  1  0
 25 55  1  0
 27 56  1  0
 28 57  1  0
 29 58  1  0
 30 59  1  0
 32 60  1  0
 34 61  1  0
 38 62  1  0
 41 63  1  0
 41 64  1  0
M  CHG  3   5  -1  16   1  19  -1
M  END
>  <EmbedRMS>  (100) 
0.08903407704073946

$$$$

     RDKit          3D

 64 67  0  0  0  0  0  0  0  0999 V2000
   10.2826   43.7757   33.8077 C   0  0  0  0  0  0  0  0  0  0  0  0
   11.4083   43.5915   34.3577 O   0  0  0  0  0  0  0  0  0  0  0  0
    9.3663   42.7322   33.7016 O   0  0  0  0  0  0  0  0  0  0  0  0
    9.8858   41.2349   34.2842 P   0  0  0  0  0  5  0  0  0  0  0  0
   10.3672   41.4696   35.8745 O   0  0  0  0  0  1  0  0  0  0  0  0
    9.9535   45.1121   33.2434 C   0  0  2  0  0  0  0  0  0  0  0  0
   11.0731   46.0266   33.4848 N   0  0  0  0  0  0  0  0  0  0  0  0
    8.6402   45.6450   33.8544 C   0  0  0  0  0  0  0  0  0  0  0  0
    8.2284   46.9392   33.2251 C   0  0  0  0  0  0  0  0  0  0  0  0
    8.5993   48.1440   33.8280 O   0  0  0  0  0  0  0  0  0  0  0  0
    7.5851   46.9328   32.1402 O   0  0  0  0  0  0  0  0  0  0  0  0
    8.2710   49.4147   33.2755 C   0  0  0  0  0  0  0  0  0  0  0  0
    8.7827   50.5095   34.1788 C   0  0  0  0  0  0  0  0  0  0  0  0
    8.4246   50.5874   35.5537 C   0  0  0  0  0  0  0  0  0  0  0  0
    9.6727   51.4614   33.6469 C   0  0  0  0  0  0  0  0  0  0  0  0
    7.5109   49.6554   36.1624 N   0  0  0  0  0  4  0  0  0  0  0  0
    8.9944   51.5954   36.3523 C   0  0  0  0  0  0  0  0  0  0  0  0
   10.2128   52.4625   34.4549 C   0  0  0  0  0  0  0  0  0  0  0  0
    7.6280   49.3535   37.4999 O   0  0  0  0  0  1  0  0  0  0  0  0
    6.5132   49.2378   35.5401 O   0  0  0  0  0  0  0  0  0  0  0  0
    9.8780   52.5266   35.8055 C   0  0  0  0  0  0  0  0  0  0  0  0
    8.8084   40.1918   34.2088 O   0  0  0  0  0  0  0  0  0  0  0  0
   11.2371   40.7918   33.3669 O   0  0  0  0  0  0  0  0  0  0  0  0
   10.9133   40.6861   31.9945 C   0  0  0  0  0  0  0  0  0  0  0  0
   11.5168   39.3797   31.4410 C   0  0  0  0  0  0  0  0  0  0  0  0
   12.7486   39.0886   32.0763 O   0  0  0  0  0  0  0  0  0  0  0  0
   10.6050   38.1876   31.6658 C   0  0  0  0  0  0  0  0  0  0  0  0
   12.9411   37.6829   32.0278 C   0  0  0  0  0  0  0  0  0  0  0  0
    9.6359   38.0930   30.6500 O   0  0  0  0  0  0  0  0  0  0  0  0
   11.5826   37.0179   31.6936 C   0  0  0  0  0  0  0  0  0  0  0  0
   13.4909   37.2176   33.3239 N   0  0  0  0  0  0  0  0  0  0  0  0
   11.6141   36.3178   30.4676 O   0  0  0  0  0  0  0  0  0  0  0  0
   14.4763   36.3270   33.5733 C   0  0  0  0  0  0  0  0  0  0  0  0
   13.1179   37.6316   34.5689 C   0  0  0  0  0  0  0  0  0  0  0  0
   15.2068   35.6140   32.6743 N   0  0  0  0  0  0  0  0  0  0  0  0
   14.6732   36.2273   34.9186 C   0  0  0  0  0  0  0  0  0  0  0  0
   13.8223   37.0456   35.5785 N   0  0  0  0  0  0  0  0  0  0  0  0
   16.1640   34.7595   33.1550 C   0  0  0  0  0  0  0  0  0  0  0  0
   15.6516   35.3492   35.4134 C   0  0  0  0  0  0  0  0  0  0  0  0
   16.3793   34.6310   34.5045 N   0  0  0  0  0  0  0  0  0  0  0  0
   15.9003   35.1934   36.8092 N   0  0  0  0  0  0  0  0  0  0  0  0
    9.8203   44.9858   32.1457 H   0  0  0  0  0  0  0  0  0  0  0  0
   11.0752   46.3290   34.4870 H   0  0  0  0  0  0  0  0  0  0  0  0
   10.9466   46.8825   32.8974 H   0  0  0  0  0  0  0  0  0  0  0  0
    8.7580   45.7901   34.9507 H   0  0  0  0  0  0  0  0  0  0  0  0
    7.8245   44.9047   33.7009 H   0  0  0  0  0  0  0  0  0  0  0  0
    7.1714   49.5120   33.1549 H   0  0  0  0  0  0  0  0  0  0  0  0
    8.7218   49.4908   32.2615 H   0  0  0  0  0  0  0  0  0  0  0  0
    9.9597   51.4259   32.6031 H   0  0  0  0  0  0  0  0  0  0  0  0
    8.7403   51.6716   37.4019 H   0  0  0  0  0  0  0  0  0  0  0  0
   10.8980   53.1868   34.0334 H   0  0  0  0  0  0  0  0  0  0  0  0
   10.3018   53.3019   36.4309 H   0  0  0  0  0  0  0  0  0  0  0  0
    9.8230   40.7208   31.7585 H   0  0  0  0  0  0  0  0  0  0  0  0
   11.3847   41.5434   31.4682 H   0  0  0  0  0  0  0  0  0  0  0  0
   11.6992   39.5065   30.3488 H   0  0  0  0  0  0  0  0  0  0  0  0
   10.1117   38.2721   32.6630 H   0  0  0  0  0  0  0  0  0  0  0  0
   13.6815   37.4633   31.2269 H   0  0  0  0  0  0  0  0  0  0  0  0
    9.0035   37.3829   30.9344 H   0  0  0  0  0  0  0  0  0  0  0  0
   11.2845   36.3041   32.4929 H   0  0  0  0  0  0  0  0  0  0  0  0
   11.8854   36.9587   29.7589 H   0  0  0  0  0  0  0  0  0  0  0  0
   12.3361   38.3597   34.7441 H   0  0  0  0  0  0  0  0  0  0  0  0
   16.7575   34.1791   32.4623 H   0  0  0  0  0  0  0  0  0  0  0  0
   16.6363   34.5317   37.1417 H   0  0  0  0  0  0  0  0  0  0  0  0
   15.3529   35.7356   37.5141 H   0  0  0  0  0  0  0  0  0  0  0  0
  1  2  2  0
  1  3  1  0
  3  4  1  0
  4  5  1  0
  6  1  1  0
  7  6  1  0
  6  8  1  0
  8  9  1  0
  9 10  1  0
  9 11  2  0
 10 12  1  0
 12 13  1  0
 13 14  2  0
 15 13  1  0
 14 16  1  0
 14 17  1  0
 18 15  2  0
 16 19  1  0
 16 20  2  0
 17 21  2  0
 21 18  1  0
  4 22  2  0
  4 23  1  0
 24 23  1  0
 24 25  1  0
 25 26  1  0
 25 27  1  0
 26 28  1  0
 27 29  1  0
 27 30  1  0
 30 28  1  0
 28 31  1  0
 30 32  1  0
 33 31  1  0
 34 31  1  0
 35 33  2  0
 33 36  1  0
 37 34  2  0
 38 35  1  0
 36 39  2  0
 36 37  1  0
 40 38  2  0
 40 39  1  0
 39 41  1  0
  6 42  1  6
  7 43  1  0
  7 44  1  0
  8 45  1  0
  8 46  1  0
 12 47  1  0
 12 48  1  0
 15 49  1  0
 17 50  1  0
 18 51  1  0
 21 52  1  0
 24 53  1  0
 24 54  1  0
 25 55  1  0
 27 56  1  0
 28 57  1  0
 29 58  1  0
 30 59  1  0
 32 60  1  0
 34 61  1  0
 38 62  1  0
 41 63  1  0
 41 64  1  0
M  CHG  3   5  -1  16   1  19  -1
M  END
>  <EmbedRMS>  (101) 
0.08757027722186671

$$$$

     RDKit          3D

 64 67  0  0  0  0  0  0  0  0999 V2000
   10.2828   43.7754   33.8085 C   0  0  0  0  0  0  0  0  0  0  0  0
   11.4085   43.5914   34.3585 O   0  0  0  0  0  0  0  0  0  0  0  0
    9.3669   42.7317   33.7016 O   0  0  0  0  0  0  0  0  0  0  0  0
    9.8865   41.2344   34.2838 P   0  0  0  0  0  5  0  0  0  0  0  0
   10.3666   41.4692   35.8745 O   0  0  0  0  0  1  0  0  0  0  0  0
    9.9547   45.1106   33.2416 C   0  0  2  0  0  0  0  0  0  0  0  0
   11.0719   46.0272   33.4848 N   0  0  0  0  0  0  0  0  0  0  0  0
    8.6388   45.6453   33.8457 C   0  0  0  0  0  0  0  0  0  0  0  0
    8.2159   46.9194   33.1836 C   0  0  0  0  0  0  0  0  0  0  0  0
    7.7638   46.8845   31.8624 O   0  0  0  0  0  0  0  0  0  0  0  0
    8.3006   48.0122   33.8078 O   0  0  0  0  0  0  0  0  0  0  0  0
    7.4205   48.0579   31.1327 C   0  0  0  0  0  0  0  0  0  0  0  0
    7.0742   47.6889   29.7119 C   0  0  0  0  0  0  0  0  0  0  0  0
    7.9520   46.9254   28.8953 C   0  0  0  0  0  0  0  0  0  0  0  0
    5.8279   48.0877   29.1942 C   0  0  0  0  0  0  0  0  0  0  0  0
    9.2489   46.5061   29.3586 N   0  0  0  0  0  4  0  0  0  0  0  0
    7.5370   46.5570   27.6023 C   0  0  0  0  0  0  0  0  0  0  0  0
    5.4435   47.7248   27.9028 C   0  0  0  0  0  0  0  0  0  0  0  0
   10.0433   47.3591   30.0887 O   0  0  0  0  0  1  0  0  0  0  0  0
    9.7331   45.4239   28.9673 O   0  0  0  0  0  0  0  0  0  0  0  0
    6.2939   46.9567   27.1104 C   0  0  0  0  0  0  0  0  0  0  0  0
    8.8091   40.1913   34.2077 O   0  0  0  0  0  0  0  0  0  0  0  0
   11.2390   40.7911   33.3682 O   0  0  0  0  0  0  0  0  0  0  0  0
   10.9194   40.6897   31.9946 C   0  0  0  0  0  0  0  0  0  0  0  0
   11.5171   39.3802   31.4397 C   0  0  0  0  0  0  0  0  0  0  0  0
   12.7478   39.0862   32.0734 O   0  0  0  0  0  0  0  0  0  0  0  0
   10.6031   38.1892   31.6666 C   0  0  0  0  0  0  0  0  0  0  0  0
   12.9335   37.6797   32.0280 C   0  0  0  0  0  0  0  0  0  0  0  0
    9.6396   38.0777   30.6456 O   0  0  0  0  0  0  0  0  0  0  0  0
   11.5739   37.0155   31.7057 C   0  0  0  0  0  0  0  0  0  0  0  0
   13.4903   37.2178   33.3231 N   0  0  0  0  0  0  0  0  0  0  0  0
   11.6211   36.3377   30.4695 O   0  0  0  0  0  0  0  0  0  0  0  0
   14.4761   36.3273   33.5725 C   0  0  0  0  0  0  0  0  0  0  0  0
   13.1179   37.6317   34.5684 C   0  0  0  0  0  0  0  0  0  0  0  0
   15.2063   35.6139   32.6737 N   0  0  0  0  0  0  0  0  0  0  0  0
   14.6733   36.2277   34.9179 C   0  0  0  0  0  0  0  0  0  0  0  0
   13.8225   37.0459   35.5779 N   0  0  0  0  0  0  0  0  0  0  0  0
   16.1636   34.7595   33.1546 C   0  0  0  0  0  0  0  0  0  0  0  0
   15.6515   35.3494   35.4129 C   0  0  0  0  0  0  0  0  0  0  0  0
   16.3791   34.6311   34.5041 N   0  0  0  0  0  0  0  0  0  0  0  0
   15.9001   35.1935   36.8088 N   0  0  0  0  0  0  0  0  0  0  0  0
    9.8276   44.9806   32.1435 H   0  0  0  0  0  0  0  0  0  0  0  0
   11.0789   46.3182   34.4903 H   0  0  0  0  0  0  0  0  0  0  0  0
   10.9357   46.8895   32.9091 H   0  0  0  0  0  0  0  0  0  0  0  0
    7.8271   44.9005   33.6974 H   0  0  0  0  0  0  0  0  0  0  0  0
    8.7541   45.8037   34.9409 H   0  0  0  0  0  0  0  0  0  0  0  0
    6.5635   48.5548   31.6381 H   0  0  0  0  0  0  0  0  0  0  0  0
    8.2678   48.7758   31.1329 H   0  0  0  0  0  0  0  0  0  0  0  0
    5.1435   48.6744   29.7946 H   0  0  0  0  0  0  0  0  0  0  0  0
    8.1874   45.9710   26.9651 H   0  0  0  0  0  0  0  0  0  0  0  0
    4.4805   48.0350   27.5180 H   0  0  0  0  0  0  0  0  0  0  0  0
    5.9913   46.6731   26.1106 H   0  0  0  0  0  0  0  0  0  0  0  0
   11.4006   41.5439   31.4720 H   0  0  0  0  0  0  0  0  0  0  0  0
    9.8314   40.7397   31.7549 H   0  0  0  0  0  0  0  0  0  0  0  0
   11.6983   39.5042   30.3470 H   0  0  0  0  0  0  0  0  0  0  0  0
   10.1089   38.2633   32.6649 H   0  0  0  0  0  0  0  0  0  0  0  0
   13.6655   37.4542   31.2207 H   0  0  0  0  0  0  0  0  0  0  0  0
    8.8966   38.6903   30.8849 H   0  0  0  0  0  0  0  0  0  0  0  0
   11.2845   36.3061   32.5175 H   0  0  0  0  0  0  0  0  0  0  0  0
   10.8523   35.7095   30.4590 H   0  0  0  0  0  0  0  0  0  0  0  0
   12.3353   38.3588   34.7440 H   0  0  0  0  0  0  0  0  0  0  0  0
   16.7570   34.1788   32.4619 H   0  0  0  0  0  0  0  0  0  0  0  0
   16.6360   34.5317   37.1413 H   0  0  0  0  0  0  0  0  0  0  0  0
   15.3529   35.7359   37.5136 H   0  0  0  0  0  0  0  0  0  0  0  0
  1  2  2  0
  1  3  1  0
  3  4  1  0
  4  5  1  0
  6  1  1  0
  7  6  1  0
  6  8  1  0
  8  9  1  0
  9 10  1  0
  9 11  2  0
 10 12  1  0
 12 13  1  0
 13 14  2  0
 15 13  1  0
 14 16  1  0
 14 17  1  0
 18 15  2  0
 16 19  1  0
 16 20  2  0
 17 21  2  0
 21 18  1  0
  4 22  2  0
  4 23  1  0
 24 23  1  0
 24 25  1  0
 25 26  1  0
 25 27  1  0
 26 28  1  0
 27 29  1  0
 27 30  1  0
 30 28  1  0
 28 31  1  0
 30 32  1  0
 33 31  1  0
 34 31  1  0
 35 33  2  0
 33 36  1  0
 37 34  2  0
 38 35  1  0
 36 39  2  0
 36 37  1  0
 40 38  2  0
 40 39  1  0
 39 41  1  0
  6 42  1  6
  7 43  1  0
  7 44  1  0
  8 45  1  0
  8 46  1  0
 12 47  1  0
 12 48  1  0
 15 49  1  0
 17 50  1  0
 18 51  1  0
 21 52  1  0
 24 53  1  0
 24 54  1  0
 25 55  1  0
 27 56  1  0
 28 57  1  0
 29 58  1  0
 30 59  1  0
 32 60  1  0
 34 61  1  0
 38 62  1  0
 41 63  1  0
 41 64  1  0
M  CHG  3   5  -1  16   1  19  -1
M  END
>  <EmbedRMS>  (102) 
0.08913671125603263

$$$$

     RDKit          3D

 64 67  0  0  0  0  0  0  0  0999 V2000
   10.2874   43.7710   33.8017 C   0  0  0  0  0  0  0  0  0  0  0  0
   11.4095   43.5876   34.3589 O   0  0  0  0  0  0  0  0  0  0  0  0
    9.3680   42.7305   33.6978 O   0  0  0  0  0  0  0  0  0  0  0  0
    9.8852   41.2342   34.2842 P   0  0  0  0  0  5  0  0  0  0  0  0
   10.3652   41.4713   35.8747 O   0  0  0  0  0  1  0  0  0  0  0  0
    9.9518   45.1157   33.2560 C   0  0  2  0  0  0  0  0  0  0  0  0
   11.0706   46.0335   33.4781 N   0  0  0  0  0  0  0  0  0  0  0  0
    8.6628   45.6647   33.9010 C   0  0  0  0  0  0  0  0  0  0  0  0
    8.7964   45.8310   35.3857 C   0  0  0  0  0  0  0  0  0  0  0  0
    8.5671   44.7309   36.2216 O   0  0  0  0  0  0  0  0  0  0  0  0
    9.1432   46.9455   35.8637 O   0  0  0  0  0  0  0  0  0  0  0  0
    8.7290   44.7676   37.6400 C   0  0  0  0  0  0  0  0  0  0  0  0
    7.4435   45.1086   38.3695 C   0  0  0  0  0  0  0  0  0  0  0  0
    7.2992   44.8241   39.7554 C   0  0  0  0  0  0  0  0  0  0  0  0
    6.3658   45.7076   37.6833 C   0  0  0  0  0  0  0  0  0  0  0  0
    8.3718   44.2524   40.5271 N   0  0  0  0  0  4  0  0  0  0  0  0
    6.0754   45.1003   40.3923 C   0  0  0  0  0  0  0  0  0  0  0  0
    5.1670   45.9876   38.3401 C   0  0  0  0  0  0  0  0  0  0  0  0
    9.6675   44.6790   40.3503 O   0  0  0  0  0  1  0  0  0  0  0  0
    8.1174   43.4891   41.4819 O   0  0  0  0  0  0  0  0  0  0  0  0
    5.0197   45.6790   39.6894 C   0  0  0  0  0  0  0  0  0  0  0  0
    8.8074   40.1916   34.2091 O   0  0  0  0  0  0  0  0  0  0  0  0
   11.2368   40.7892   33.3686 O   0  0  0  0  0  0  0  0  0  0  0  0
   10.9154   40.6881   31.9954 C   0  0  0  0  0  0  0  0  0  0  0  0
   11.5261   39.3871   31.4366 C   0  0  0  0  0  0  0  0  0  0  0  0
   12.7492   39.0893   32.0819 O   0  0  0  0  0  0  0  0  0  0  0  0
   10.6123   38.1893   31.6461 C   0  0  0  0  0  0  0  0  0  0  0  0
   12.9373   37.6827   32.0301 C   0  0  0  0  0  0  0  0  0  0  0  0
    9.6150   38.0839   30.6538 O   0  0  0  0  0  0  0  0  0  0  0  0
   11.5793   37.0136   31.7014 C   0  0  0  0  0  0  0  0  0  0  0  0
   13.4906   37.2169   33.3242 N   0  0  0  0  0  0  0  0  0  0  0  0
   11.6216   36.3252   30.4725 O   0  0  0  0  0  0  0  0  0  0  0  0
   14.4763   36.3266   33.5731 C   0  0  0  0  0  0  0  0  0  0  0  0
   13.1182   37.6308   34.5694 C   0  0  0  0  0  0  0  0  0  0  0  0
   15.2065   35.6137   32.6740 N   0  0  0  0  0  0  0  0  0  0  0  0
   14.6735   36.2270   34.9185 C   0  0  0  0  0  0  0  0  0  0  0  0
   13.8229   37.0451   35.5787 N   0  0  0  0  0  0  0  0  0  0  0  0
   16.1639   34.7593   33.1547 C   0  0  0  0  0  0  0  0  0  0  0  0
   15.6519   35.3489   35.4132 C   0  0  0  0  0  0  0  0  0  0  0  0
   16.3794   34.6308   34.5042 N   0  0  0  0  0  0  0  0  0  0  0  0
   15.9006   35.1931   36.8090 N   0  0  0  0  0  0  0  0  0  0  0  0
    9.7768   45.0104   32.1616 H   0  0  0  0  0  0  0  0  0  0  0  0
   10.8082   46.9727   33.0993 H   0  0  0  0  0  0  0  0  0  0  0  0
   11.8802   45.7140   32.8965 H   0  0  0  0  0  0  0  0  0  0  0  0
    7.8154   44.9769   33.6894 H   0  0  0  0  0  0  0  0  0  0  0  0
    8.4054   46.6434   33.4405 H   0  0  0  0  0  0  0  0  0  0  0  0
    9.0590   43.7554   37.9555 H   0  0  0  0  0  0  0  0  0  0  0  0
    9.5279   45.4876   37.9193 H   0  0  0  0  0  0  0  0  0  0  0  0
    6.4332   45.9524   36.6333 H   0  0  0  0  0  0  0  0  0  0  0  0
    5.9453   44.8840   41.4452 H   0  0  0  0  0  0  0  0  0  0  0  0
    4.3471   46.4413   37.7981 H   0  0  0  0  0  0  0  0  0  0  0  0
    4.0869   45.8945   40.1946 H   0  0  0  0  0  0  0  0  0  0  0  0
   11.3830   41.5504   31.4736 H   0  0  0  0  0  0  0  0  0  0  0  0
    9.8254   40.7181   31.7583 H   0  0  0  0  0  0  0  0  0  0  0  0
   11.7290   39.5289   30.3505 H   0  0  0  0  0  0  0  0  0  0  0  0
   10.1139   38.2718   32.6380 H   0  0  0  0  0  0  0  0  0  0  0  0
   13.6726   37.4636   31.2240 H   0  0  0  0  0  0  0  0  0  0  0  0
   10.0536   38.1086   29.7639 H   0  0  0  0  0  0  0  0  0  0  0  0
   11.2646   36.3134   32.5107 H   0  0  0  0  0  0  0  0  0  0  0  0
   12.1549   35.5032   30.6315 H   0  0  0  0  0  0  0  0  0  0  0  0
   12.3362   38.3586   34.7450 H   0  0  0  0  0  0  0  0  0  0  0  0
   16.7573   34.1788   32.4619 H   0  0  0  0  0  0  0  0  0  0  0  0
   15.3533   35.7353   37.5139 H   0  0  0  0  0  0  0  0  0  0  0  0
   16.6366   34.5314   37.1415 H   0  0  0  0  0  0  0  0  0  0  0  0
  1  2  2  0
  1  3  1  0
  3  4  1  0
  4  5  1  0
  6  1  1  0
  7  6  1  0
  6  8  1  0
  8  9  1  0
  9 10  1  0
  9 11  2  0
 10 12  1  0
 12 13  1  0
 13 14  2  0
 15 13  1  0
 14 16  1  0
 14 17  1  0
 18 15  2  0
 16 19  1  0
 16 20  2  0
 17 21  2  0
 21 18  1  0
  4 22  2  0
  4 23  1  0
 24 23  1  0
 24 25  1  0
 25 26  1  0
 25 27  1  0
 26 28  1  0
 27 29  1  0
 27 30  1  0
 30 28  1  0
 28 31  1  0
 30 32  1  0
 33 31  1  0
 34 31  1  0
 35 33  2  0
 33 36  1  0
 37 34  2  0
 38 35  1  0
 36 39  2  0
 36 37  1  0
 40 38  2  0
 40 39  1  0
 39 41  1  0
  6 42  1  6
  7 43  1  0
  7 44  1  0
  8 45  1  0
  8 46  1  0
 12 47  1  0
 12 48  1  0
 15 49  1  0
 17 50  1  0
 18 51  1  0
 21 52  1  0
 24 53  1  0
 24 54  1  0
 25 55  1  0
 27 56  1  0
 28 57  1  0
 29 58  1  0
 30 59  1  0
 32 60  1  0
 34 61  1  0
 38 62  1  0
 41 63  1  0
 41 64  1  0
M  CHG  3   5  -1  16   1  19  -1
M  END
>  <EmbedRMS>  (103) 
0.08794466205018316

$$$$

     RDKit          3D

 64 67  0  0  0  0  0  0  0  0999 V2000
   10.2811   43.7759   33.8095 C   0  0  0  0  0  0  0  0  0  0  0  0
   11.4071   43.5919   34.3590 O   0  0  0  0  0  0  0  0  0  0  0  0
    9.3700   42.7291   33.6975 O   0  0  0  0  0  0  0  0  0  0  0  0
    9.8871   41.2335   34.2836 P   0  0  0  0  0  5  0  0  0  0  0  0
   10.3661   41.4701   35.8743 O   0  0  0  0  0  1  0  0  0  0  0  0
    9.9496   45.1176   33.2501 C   0  0  2  0  0  0  0  0  0  0  0  0
   11.0756   46.0251   33.4788 N   0  0  0  0  0  0  0  0  0  0  0  0
    8.6584   45.6940   33.8733 C   0  0  0  0  0  0  0  0  0  0  0  0
    7.4377   44.9469   33.4302 C   0  0  0  0  0  0  0  0  0  0  0  0
    6.8477   44.0202   34.2970 O   0  0  0  0  0  0  0  0  0  0  0  0
    6.9778   45.1322   32.2708 O   0  0  0  0  0  0  0  0  0  0  0  0
    5.6930   43.2520   33.9657 C   0  0  0  0  0  0  0  0  0  0  0  0
    4.4502   44.1088   34.0148 C   0  0  0  0  0  0  0  0  0  0  0  0
    3.8141   44.4558   35.2389 C   0  0  0  0  0  0  0  0  0  0  0  0
    3.8981   44.5600   32.8019 C   0  0  0  0  0  0  0  0  0  0  0  0
    4.3268   44.0350   36.5171 N   0  0  0  0  0  4  0  0  0  0  0  0
    2.6316   45.2166   35.2016 C   0  0  0  0  0  0  0  0  0  0  0  0
    2.7329   45.3270   32.7905 C   0  0  0  0  0  0  0  0  0  0  0  0
    3.4653   43.8474   37.5736 O   0  0  0  0  0  1  0  0  0  0  0  0
    5.5550   43.9949   36.7334 O   0  0  0  0  0  0  0  0  0  0  0  0
    2.0989   45.6515   33.9875 C   0  0  0  0  0  0  0  0  0  0  0  0
    8.8086   40.1916   34.2077 O   0  0  0  0  0  0  0  0  0  0  0  0
   11.2392   40.7893   33.3684 O   0  0  0  0  0  0  0  0  0  0  0  0
   10.9192   40.6886   31.9948 C   0  0  0  0  0  0  0  0  0  0  0  0
   11.5181   39.3799   31.4396 C   0  0  0  0  0  0  0  0  0  0  0  0
   12.7485   39.0874   32.0747 O   0  0  0  0  0  0  0  0  0  0  0  0
   10.6053   38.1875   31.6656 C   0  0  0  0  0  0  0  0  0  0  0  0
   12.9361   37.6815   32.0287 C   0  0  0  0  0  0  0  0  0  0  0  0
    9.6422   38.0738   30.6446 O   0  0  0  0  0  0  0  0  0  0  0  0
   11.5764   37.0158   31.7046 C   0  0  0  0  0  0  0  0  0  0  0  0
   13.4908   37.2182   33.3236 N   0  0  0  0  0  0  0  0  0  0  0  0
   11.6101   36.3399   30.4680 O   0  0  0  0  0  0  0  0  0  0  0  0
   14.4762   36.3273   33.5728 C   0  0  0  0  0  0  0  0  0  0  0  0
   13.1181   37.6318   34.5689 C   0  0  0  0  0  0  0  0  0  0  0  0
   15.2063   35.6140   32.6739 N   0  0  0  0  0  0  0  0  0  0  0  0
   14.6733   36.2275   34.9182 C   0  0  0  0  0  0  0  0  0  0  0  0
   13.8226   37.0457   35.5783 N   0  0  0  0  0  0  0  0  0  0  0  0
   16.1636   34.7595   33.1546 C   0  0  0  0  0  0  0  0  0  0  0  0
   15.6515   35.3492   35.4130 C   0  0  0  0  0  0  0  0  0  0  0  0
   16.3791   34.6310   34.5041 N   0  0  0  0  0  0  0  0  0  0  0  0
   15.9002   35.1934   36.8089 N   0  0  0  0  0  0  0  0  0  0  0  0
    9.8094   45.0046   32.1519 H   0  0  0  0  0  0  0  0  0  0  0  0
   10.9074   46.9078   32.9431 H   0  0  0  0  0  0  0  0  0  0  0  0
   11.1200   46.2820   34.4929 H   0  0  0  0  0  0  0  0  0  0  0  0
    8.7260   45.6702   34.9832 H   0  0  0  0  0  0  0  0  0  0  0  0
    8.5423   46.7572   33.5700 H   0  0  0  0  0  0  0  0  0  0  0  0
    5.5960   42.4142   34.6875 H   0  0  0  0  0  0  0  0  0  0  0  0
    5.8267   42.7835   32.9656 H   0  0  0  0  0  0  0  0  0  0  0  0
    4.3651   44.3089   31.8577 H   0  0  0  0  0  0  0  0  0  0  0  0
    2.1267   45.4895   36.1196 H   0  0  0  0  0  0  0  0  0  0  0  0
    2.3175   45.6655   31.8500 H   0  0  0  0  0  0  0  0  0  0  0  0
    1.1928   46.2435   33.9757 H   0  0  0  0  0  0  0  0  0  0  0  0
    9.8311   40.7373   31.7554 H   0  0  0  0  0  0  0  0  0  0  0  0
   11.3995   41.5434   31.4726 H   0  0  0  0  0  0  0  0  0  0  0  0
   11.7001   39.5045   30.3471 H   0  0  0  0  0  0  0  0  0  0  0  0
   10.1104   38.2619   32.6636 H   0  0  0  0  0  0  0  0  0  0  0  0
   13.6695   37.4583   31.2222 H   0  0  0  0  0  0  0  0  0  0  0  0
    8.9001   38.6885   30.8813 H   0  0  0  0  0  0  0  0  0  0  0  0
   11.2689   36.3068   32.5091 H   0  0  0  0  0  0  0  0  0  0  0  0
   12.1424   35.5150   30.6153 H   0  0  0  0  0  0  0  0  0  0  0  0
   12.3358   38.3593   34.7444 H   0  0  0  0  0  0  0  0  0  0  0  0
   16.7569   34.1789   32.4618 H   0  0  0  0  0  0  0  0  0  0  0  0
   16.6361   34.5315   37.1414 H   0  0  0  0  0  0  0  0  0  0  0  0
   15.3530   35.7357   37.5138 H   0  0  0  0  0  0  0  0  0  0  0  0
  1  2  2  0
  1  3  1  0
  3  4  1  0
  4  5  1  0
  6  1  1  0
  7  6  1  0
  6  8  1  0
  8  9  1  0
  9 10  1  0
  9 11  2  0
 10 12  1  0
 12 13  1  0
 13 14  2  0
 15 13  1  0
 14 16  1  0
 14 17  1  0
 18 15  2  0
 16 19  1  0
 16 20  2  0
 17 21  2  0
 21 18  1  0
  4 22  2  0
  4 23  1  0
 24 23  1  0
 24 25  1  0
 25 26  1  0
 25 27  1  0
 26 28  1  0
 27 29  1  0
 27 30  1  0
 30 28  1  0
 28 31  1  0
 30 32  1  0
 33 31  1  0
 34 31  1  0
 35 33  2  0
 33 36  1  0
 37 34  2  0
 38 35  1  0
 36 39  2  0
 36 37  1  0
 40 38  2  0
 40 39  1  0
 39 41  1  0
  6 42  1  6
  7 43  1  0
  7 44  1  0
  8 45  1  0
  8 46  1  0
 12 47  1  0
 12 48  1  0
 15 49  1  0
 17 50  1  0
 18 51  1  0
 21 52  1  0
 24 53  1  0
 24 54  1  0
 25 55  1  0
 27 56  1  0
 28 57  1  0
 29 58  1  0
 30 59  1  0
 32 60  1  0
 34 61  1  0
 38 62  1  0
 41 63  1  0
 41 64  1  0
M  CHG  3   5  -1  16   1  19  -1
M  END
>  <EmbedRMS>  (104) 
0.08942534946103735

$$$$

     RDKit          3D

 64 67  0  0  0  0  0  0  0  0999 V2000
   10.2845   43.7742   33.8068 C   0  0  0  0  0  0  0  0  0  0  0  0
   11.4070   43.5903   34.3634 O   0  0  0  0  0  0  0  0  0  0  0  0
    9.3680   42.7311   33.6988 O   0  0  0  0  0  0  0  0  0  0  0  0
    9.8859   41.2342   34.2835 P   0  0  0  0  0  5  0  0  0  0  0  0
   10.3663   41.4697   35.8740 O   0  0  0  0  0  1  0  0  0  0  0  0
    9.9494   45.1162   33.2545 C   0  0  2  0  0  0  0  0  0  0  0  0
   11.0751   46.0281   33.4736 N   0  0  0  0  0  0  0  0  0  0  0  0
    8.6783   45.6533   33.9411 C   0  0  0  0  0  0  0  0  0  0  0  0
    8.1742   46.8959   33.2746 C   0  0  0  0  0  0  0  0  0  0  0  0
    7.5878   46.8049   32.0076 O   0  0  0  0  0  0  0  0  0  0  0  0
    8.2969   48.0116   33.8502 O   0  0  0  0  0  0  0  0  0  0  0  0
    7.0415   47.9267   31.3167 C   0  0  0  0  0  0  0  0  0  0  0  0
    5.7876   48.4216   32.0007 C   0  0  0  0  0  0  0  0  0  0  0  0
    4.7045   47.5567   32.3146 C   0  0  0  0  0  0  0  0  0  0  0  0
    5.7131   49.7772   32.3703 C   0  0  0  0  0  0  0  0  0  0  0  0
    4.7114   46.1655   31.9455 N   0  0  0  0  0  4  0  0  0  0  0  0
    3.6001   48.0710   33.0188 C   0  0  0  0  0  0  0  0  0  0  0  0
    4.6011   50.2695   33.0544 C   0  0  0  0  0  0  0  0  0  0  0  0
    5.1919   45.7662   30.7202 O   0  0  0  0  0  1  0  0  0  0  0  0
    4.1356   45.3243   32.6663 O   0  0  0  0  0  0  0  0  0  0  0  0
    3.5491   49.4172   33.3824 C   0  0  0  0  0  0  0  0  0  0  0  0
    8.8081   40.1915   34.2081 O   0  0  0  0  0  0  0  0  0  0  0  0
   11.2374   40.7899   33.3677 O   0  0  0  0  0  0  0  0  0  0  0  0
   10.9156   40.6881   31.9946 C   0  0  0  0  0  0  0  0  0  0  0  0
   11.5262   39.3870   31.4363 C   0  0  0  0  0  0  0  0  0  0  0  0
   12.7492   39.0892   32.0818 O   0  0  0  0  0  0  0  0  0  0  0  0
   10.6123   38.1893   31.6461 C   0  0  0  0  0  0  0  0  0  0  0  0
   12.9374   37.6826   32.0301 C   0  0  0  0  0  0  0  0  0  0  0  0
    9.6150   38.0838   30.6538 O   0  0  0  0  0  0  0  0  0  0  0  0
   11.5793   37.0136   31.7014 C   0  0  0  0  0  0  0  0  0  0  0  0
   13.4907   37.2169   33.3242 N   0  0  0  0  0  0  0  0  0  0  0  0
   11.6216   36.3252   30.4725 O   0  0  0  0  0  0  0  0  0  0  0  0
   14.4763   36.3266   33.5731 C   0  0  0  0  0  0  0  0  0  0  0  0
   13.1182   37.6308   34.5694 C   0  0  0  0  0  0  0  0  0  0  0  0
   15.2065   35.6137   32.6740 N   0  0  0  0  0  0  0  0  0  0  0  0
   14.6736   36.2270   34.9185 C   0  0  0  0  0  0  0  0  0  0  0  0
   13.8229   37.0451   35.5787 N   0  0  0  0  0  0  0  0  0  0  0  0
   16.1639   34.7593   33.1547 C   0  0  0  0  0  0  0  0  0  0  0  0
   15.6519   35.3489   35.4132 C   0  0  0  0  0  0  0  0  0  0  0  0
   16.3795   34.6308   34.5042 N   0  0  0  0  0  0  0  0  0  0  0  0
   15.9006   35.1931   36.8090 N   0  0  0  0  0  0  0  0  0  0  0  0
    9.7649   45.0039   32.1617 H   0  0  0  0  0  0  0  0  0  0  0  0
   11.8933   45.6811   32.9205 H   0  0  0  0  0  0  0  0  0  0  0  0
   10.8419   46.9578   33.0561 H   0  0  0  0  0  0  0  0  0  0  0  0
    7.8677   44.8941   33.8894 H   0  0  0  0  0  0  0  0  0  0  0  0
    8.8845   45.8546   35.0159 H   0  0  0  0  0  0  0  0  0  0  0  0
    7.8146   48.7236   31.2490 H   0  0  0  0  0  0  0  0  0  0  0  0
    6.7997   47.6342   30.2746 H   0  0  0  0  0  0  0  0  0  0  0  0
    6.5245   50.4566   32.1397 H   0  0  0  0  0  0  0  0  0  0  0  0
    2.7661   47.4291   33.2731 H   0  0  0  0  0  0  0  0  0  0  0  0
    4.5585   51.3136   33.3367 H   0  0  0  0  0  0  0  0  0  0  0  0
    2.6895   49.8008   33.9168 H   0  0  0  0  0  0  0  0  0  0  0  0
   11.3829   41.5503   31.4724 H   0  0  0  0  0  0  0  0  0  0  0  0
    9.8254   40.7180   31.7578 H   0  0  0  0  0  0  0  0  0  0  0  0
   11.7292   39.5285   30.3502 H   0  0  0  0  0  0  0  0  0  0  0  0
   10.1140   38.2719   32.6379 H   0  0  0  0  0  0  0  0  0  0  0  0
   13.6726   37.4635   31.2240 H   0  0  0  0  0  0  0  0  0  0  0  0
   10.0535   38.1084   29.7638 H   0  0  0  0  0  0  0  0  0  0  0  0
   11.2646   36.3134   32.5107 H   0  0  0  0  0  0  0  0  0  0  0  0
   12.1549   35.5031   30.6316 H   0  0  0  0  0  0  0  0  0  0  0  0
   12.3362   38.3586   34.7450 H   0  0  0  0  0  0  0  0  0  0  0  0
   16.7574   34.1788   32.4619 H   0  0  0  0  0  0  0  0  0  0  0  0
   15.3533   35.7353   37.5139 H   0  0  0  0  0  0  0  0  0  0  0  0
   16.6366   34.5314   37.1415 H   0  0  0  0  0  0  0  0  0  0  0  0
  1  2  2  0
  1  3  1  0
  3  4  1  0
  4  5  1  0
  6  1  1  0
  7  6  1  0
  6  8  1  0
  8  9  1  0
  9 10  1  0
  9 11  2  0
 10 12  1  0
 12 13  1  0
 13 14  2  0
 15 13  1  0
 14 16  1  0
 14 17  1  0
 18 15  2  0
 16 19  1  0
 16 20  2  0
 17 21  2  0
 21 18  1  0
  4 22  2  0
  4 23  1  0
 24 23  1  0
 24 25  1  0
 25 26  1  0
 25 27  1  0
 26 28  1  0
 27 29  1  0
 27 30  1  0
 30 28  1  0
 28 31  1  0
 30 32  1  0
 33 31  1  0
 34 31  1  0
 35 33  2  0
 33 36  1  0
 37 34  2  0
 38 35  1  0
 36 39  2  0
 36 37  1  0
 40 38  2  0
 40 39  1  0
 39 41  1  0
  6 42  1  6
  7 43  1  0
  7 44  1  0
  8 45  1  0
  8 46  1  0
 12 47  1  0
 12 48  1  0
 15 49  1  0
 17 50  1  0
 18 51  1  0
 21 52  1  0
 24 53  1  0
 24 54  1  0
 25 55  1  0
 27 56  1  0
 28 57  1  0
 29 58  1  0
 30 59  1  0
 32 60  1  0
 34 61  1  0
 38 62  1  0
 41 63  1  0
 41 64  1  0
M  CHG  3   5  -1  16   1  19  -1
M  END
>  <EmbedRMS>  (105) 
0.08798804992636533

$$$$

     RDKit          3D

 64 67  0  0  0  0  0  0  0  0999 V2000
   10.2829   43.7754   33.8078 C   0  0  0  0  0  0  0  0  0  0  0  0
   11.4086   43.5915   34.3579 O   0  0  0  0  0  0  0  0  0  0  0  0
    9.3669   42.7317   33.7012 O   0  0  0  0  0  0  0  0  0  0  0  0
    9.8865   41.2344   34.2838 P   0  0  0  0  0  5  0  0  0  0  0  0
   10.3666   41.4694   35.8744 O   0  0  0  0  0  1  0  0  0  0  0  0
    9.9537   45.1113   33.2430 C   0  0  2  0  0  0  0  0  0  0  0  0
   11.0724   46.0268   33.4847 N   0  0  0  0  0  0  0  0  0  0  0  0
    8.6395   45.6442   33.8522 C   0  0  0  0  0  0  0  0  0  0  0  0
    8.2226   46.9288   33.2076 C   0  0  0  0  0  0  0  0  0  0  0  0
    7.6446   46.9019   31.9333 O   0  0  0  0  0  0  0  0  0  0  0  0
    8.4316   48.0240   33.7978 O   0  0  0  0  0  0  0  0  0  0  0  0
    7.3313   48.0829   31.1953 C   0  0  0  0  0  0  0  0  0  0  0  0
    8.5862   48.7834   30.7174 C   0  0  0  0  0  0  0  0  0  0  0  0
    8.6655   50.1982   30.6194 C   0  0  0  0  0  0  0  0  0  0  0  0
    9.7015   48.0095   30.3420 C   0  0  0  0  0  0  0  0  0  0  0  0
    7.5302   51.0418   30.8752 N   0  0  0  0  0  4  0  0  0  0  0  0
    9.8827   50.7938   30.2452 C   0  0  0  0  0  0  0  0  0  0  0  0
   10.8951   48.6196   29.9549 C   0  0  0  0  0  0  0  0  0  0  0  0
    7.7142   52.2939   31.4152 O   0  0  0  0  0  1  0  0  0  0  0  0
    6.4078   50.7434   30.4175 O   0  0  0  0  0  0  0  0  0  0  0  0
   10.9895   50.0092   29.9190 C   0  0  0  0  0  0  0  0  0  0  0  0
    8.8091   40.1914   34.2077 O   0  0  0  0  0  0  0  0  0  0  0  0
   11.2390   40.7910   33.3682 O   0  0  0  0  0  0  0  0  0  0  0  0
   10.9194   40.6896   31.9946 C   0  0  0  0  0  0  0  0  0  0  0  0
   11.5171   39.3801   31.4397 C   0  0  0  0  0  0  0  0  0  0  0  0
   12.7478   39.0862   32.0734 O   0  0  0  0  0  0  0  0  0  0  0  0
   10.6031   38.1891   31.6666 C   0  0  0  0  0  0  0  0  0  0  0  0
   12.9335   37.6797   32.0280 C   0  0  0  0  0  0  0  0  0  0  0  0
    9.6397   38.0777   30.6456 O   0  0  0  0  0  0  0  0  0  0  0  0
   11.5739   37.0154   31.7057 C   0  0  0  0  0  0  0  0  0  0  0  0
   13.4903   37.2178   33.3231 N   0  0  0  0  0  0  0  0  0  0  0  0
   11.6211   36.3376   30.4695 O   0  0  0  0  0  0  0  0  0  0  0  0
   14.4761   36.3273   33.5725 C   0  0  0  0  0  0  0  0  0  0  0  0
   13.1179   37.6316   34.5684 C   0  0  0  0  0  0  0  0  0  0  0  0
   15.2063   35.6139   32.6737 N   0  0  0  0  0  0  0  0  0  0  0  0
   14.6733   36.2277   34.9180 C   0  0  0  0  0  0  0  0  0  0  0  0
   13.8225   37.0459   35.5779 N   0  0  0  0  0  0  0  0  0  0  0  0
   16.1636   34.7594   33.1546 C   0  0  0  0  0  0  0  0  0  0  0  0
   15.6515   35.3494   35.4129 C   0  0  0  0  0  0  0  0  0  0  0  0
   16.3791   34.6311   34.5041 N   0  0  0  0  0  0  0  0  0  0  0  0
   15.9001   35.1935   36.8088 N   0  0  0  0  0  0  0  0  0  0  0  0
    9.8225   44.9835   32.1454 H   0  0  0  0  0  0  0  0  0  0  0  0
   11.0775   46.3233   34.4886 H   0  0  0  0  0  0  0  0  0  0  0  0
   10.9417   46.8860   32.9034 H   0  0  0  0  0  0  0  0  0  0  0  0
    7.8253   44.9036   33.6958 H   0  0  0  0  0  0  0  0  0  0  0  0
    8.7545   45.7900   34.9492 H   0  0  0  0  0  0  0  0  0  0  0  0
    6.7250   47.7996   30.3099 H   0  0  0  0  0  0  0  0  0  0  0  0
    6.7150   48.7429   31.8413 H   0  0  0  0  0  0  0  0  0  0  0  0
    9.6555   46.9280   30.3651 H   0  0  0  0  0  0  0  0  0  0  0  0
    9.9667   51.8711   30.1781 H   0  0  0  0  0  0  0  0  0  0  0  0
   11.7500   48.0126   29.6861 H   0  0  0  0  0  0  0  0  0  0  0  0
   11.9175   50.4801   29.6213 H   0  0  0  0  0  0  0  0  0  0  0  0
    9.8315   40.7397   31.7549 H   0  0  0  0  0  0  0  0  0  0  0  0
   11.4008   41.5437   31.4721 H   0  0  0  0  0  0  0  0  0  0  0  0
   11.6983   39.5042   30.3470 H   0  0  0  0  0  0  0  0  0  0  0  0
   10.1090   38.2632   32.6649 H   0  0  0  0  0  0  0  0  0  0  0  0
   13.6655   37.4541   31.2207 H   0  0  0  0  0  0  0  0  0  0  0  0
    8.8965   38.6901   30.8851 H   0  0  0  0  0  0  0  0  0  0  0  0
   11.2845   36.3060   32.5175 H   0  0  0  0  0  0  0  0  0  0  0  0
   10.8523   35.7095   30.4590 H   0  0  0  0  0  0  0  0  0  0  0  0
   12.3353   38.3588   34.7439 H   0  0  0  0  0  0  0  0  0  0  0  0
   16.7570   34.1788   32.4619 H   0  0  0  0  0  0  0  0  0  0  0  0
   16.6360   34.5317   37.1413 H   0  0  0  0  0  0  0  0  0  0  0  0
   15.3529   35.7359   37.5136 H   0  0  0  0  0  0  0  0  0  0  0  0
  1  2  2  0
  1  3  1  0
  3  4  1  0
  4  5  1  0
  6  1  1  0
  7  6  1  0
  6  8  1  0
  8  9  1  0
  9 10  1  0
  9 11  2  0
 10 12  1  0
 12 13  1  0
 13 14  2  0
 15 13  1  0
 14 16  1  0
 14 17  1  0
 18 15  2  0
 16 19  1  0
 16 20  2  0
 17 21  2  0
 21 18  1  0
  4 22  2  0
  4 23  1  0
 24 23  1  0
 24 25  1  0
 25 26  1  0
 25 27  1  0
 26 28  1  0
 27 29  1  0
 27 30  1  0
 30 28  1  0
 28 31  1  0
 30 32  1  0
 33 31  1  0
 34 31  1  0
 35 33  2  0
 33 36  1  0
 37 34  2  0
 38 35  1  0
 36 39  2  0
 36 37  1  0
 40 38  2  0
 40 39  1  0
 39 41  1  0
  6 42  1  6
  7 43  1  0
  7 44  1  0
  8 45  1  0
  8 46  1  0
 12 47  1  0
 12 48  1  0
 15 49  1  0
 17 50  1  0
 18 51  1  0
 21 52  1  0
 24 53  1  0
 24 54  1  0
 25 55  1  0
 27 56  1  0
 28 57  1  0
 29 58  1  0
 30 59  1  0
 32 60  1  0
 34 61  1  0
 38 62  1  0
 41 63  1  0
 41 64  1  0
M  CHG  3   5  -1  16   1  19  -1
M  END
>  <EmbedRMS>  (106) 
0.08915249573910844

$$$$

     RDKit          3D

 64 67  0  0  0  0  0  0  0  0999 V2000
   10.2829   43.7755   33.8078 C   0  0  0  0  0  0  0  0  0  0  0  0
   11.4086   43.5914   34.3578 O   0  0  0  0  0  0  0  0  0  0  0  0
    9.3667   42.7319   33.7016 O   0  0  0  0  0  0  0  0  0  0  0  0
    9.8860   41.2347   34.2846 P   0  0  0  0  0  5  0  0  0  0  0  0
   10.3662   41.4696   35.8751 O   0  0  0  0  0  1  0  0  0  0  0  0
    9.9536   45.1116   33.2433 C   0  0  2  0  0  0  0  0  0  0  0  0
   11.0723   46.0270   33.4847 N   0  0  0  0  0  0  0  0  0  0  0  0
    8.6406   45.6446   33.8540 C   0  0  0  0  0  0  0  0  0  0  0  0
    8.2193   46.9287   33.2102 C   0  0  0  0  0  0  0  0  0  0  0  0
    7.6675   46.9025   31.9234 O   0  0  0  0  0  0  0  0  0  0  0  0
    8.3812   48.0197   33.8222 O   0  0  0  0  0  0  0  0  0  0  0  0
    7.2582   48.0745   31.2164 C   0  0  0  0  0  0  0  0  0  0  0  0
    5.8018   48.4286   31.4530 C   0  0  0  0  0  0  0  0  0  0  0  0
    5.1244   49.3273   30.5834 C   0  0  0  0  0  0  0  0  0  0  0  0
    5.0904   47.8630   32.5329 C   0  0  0  0  0  0  0  0  0  0  0  0
    5.7957   49.9669   29.4819 N   0  0  0  0  0  4  0  0  0  0  0  0
    3.7593   49.5943   30.7946 C   0  0  0  0  0  0  0  0  0  0  0  0
    3.7407   48.1556   32.7319 C   0  0  0  0  0  0  0  0  0  0  0  0
    7.0725   50.4575   29.6277 O   0  0  0  0  0  1  0  0  0  0  0  0
    5.1668   50.2353   28.4372 O   0  0  0  0  0  0  0  0  0  0  0  0
    3.0752   49.0144   31.8618 C   0  0  0  0  0  0  0  0  0  0  0  0
    8.8089   40.1914   34.2081 O   0  0  0  0  0  0  0  0  0  0  0  0
   11.2386   40.7916   33.3693 O   0  0  0  0  0  0  0  0  0  0  0  0
   10.9187   40.6907   31.9959 C   0  0  0  0  0  0  0  0  0  0  0  0
   11.5175   39.3824   31.4412 C   0  0  0  0  0  0  0  0  0  0  0  0
   12.7494   39.0893   32.0757 O   0  0  0  0  0  0  0  0  0  0  0  0
   10.6036   38.1900   31.6660 C   0  0  0  0  0  0  0  0  0  0  0  0
   12.9401   37.6834   32.0276 C   0  0  0  0  0  0  0  0  0  0  0  0
    9.6376   38.0785   30.6474 O   0  0  0  0  0  0  0  0  0  0  0  0
   11.5803   37.0204   31.6937 C   0  0  0  0  0  0  0  0  0  0  0  0
   13.4902   37.2177   33.3237 N   0  0  0  0  0  0  0  0  0  0  0  0
   11.6118   36.3193   30.4680 O   0  0  0  0  0  0  0  0  0  0  0  0
   14.4758   36.3271   33.5731 C   0  0  0  0  0  0  0  0  0  0  0  0
   13.1176   37.6317   34.5688 C   0  0  0  0  0  0  0  0  0  0  0  0
   15.2064   35.6142   32.6742 N   0  0  0  0  0  0  0  0  0  0  0  0
   14.6729   36.2274   34.9184 C   0  0  0  0  0  0  0  0  0  0  0  0
   13.8221   37.0457   35.5783 N   0  0  0  0  0  0  0  0  0  0  0  0
   16.1637   34.7597   33.1549 C   0  0  0  0  0  0  0  0  0  0  0  0
   15.6514   35.3493   35.4133 C   0  0  0  0  0  0  0  0  0  0  0  0
   16.3791   34.6312   34.5044 N   0  0  0  0  0  0  0  0  0  0  0  0
   15.9001   35.1935   36.8091 N   0  0  0  0  0  0  0  0  0  0  0  0
    9.8214   44.9847   32.1455 H   0  0  0  0  0  0  0  0  0  0  0  0
   10.9380   46.8880   32.9066 H   0  0  0  0  0  0  0  0  0  0  0  0
   11.0801   46.3203   34.4895 H   0  0  0  0  0  0  0  0  0  0  0  0
    7.8262   44.9038   33.6997 H   0  0  0  0  0  0  0  0  0  0  0  0
    8.7575   45.7901   34.9509 H   0  0  0  0  0  0  0  0  0  0  0  0
    7.4015   47.8705   30.1343 H   0  0  0  0  0  0  0  0  0  0  0  0
    7.9080   48.9337   31.4888 H   0  0  0  0  0  0  0  0  0  0  0  0
    5.5636   47.1811   33.2242 H   0  0  0  0  0  0  0  0  0  0  0  0
    3.2261   50.2712   30.1389 H   0  0  0  0  0  0  0  0  0  0  0  0
    3.2076   47.7093   33.5616 H   0  0  0  0  0  0  0  0  0  0  0  0
    2.0271   49.2361   32.0174 H   0  0  0  0  0  0  0  0  0  0  0  0
    9.8307   40.7396   31.7563 H   0  0  0  0  0  0  0  0  0  0  0  0
   11.3992   41.5455   31.4737 H   0  0  0  0  0  0  0  0  0  0  0  0
   11.6989   39.5091   30.3489 H   0  0  0  0  0  0  0  0  0  0  0  0
   10.1130   38.2589   32.6664 H   0  0  0  0  0  0  0  0  0  0  0  0
   13.6800   37.4628   31.2265 H   0  0  0  0  0  0  0  0  0  0  0  0
    8.8952   38.6908   30.8891 H   0  0  0  0  0  0  0  0  0  0  0  0
   11.2830   36.3060   32.4929 H   0  0  0  0  0  0  0  0  0  0  0  0
   11.8859   36.9589   29.7593 H   0  0  0  0  0  0  0  0  0  0  0  0
   12.3360   38.3600   34.7442 H   0  0  0  0  0  0  0  0  0  0  0  0
   16.7572   34.1793   32.4621 H   0  0  0  0  0  0  0  0  0  0  0  0
   16.6362   34.5318   37.1416 H   0  0  0  0  0  0  0  0  0  0  0  0
   15.3528   35.7356   37.5140 H   0  0  0  0  0  0  0  0  0  0  0  0
  1  2  2  0
  1  3  1  0
  3  4  1  0
  4  5  1  0
  6  1  1  0
  7  6  1  0
  6  8  1  0
  8  9  1  0
  9 10  1  0
  9 11  2  0
 10 12  1  0
 12 13  1  0
 13 14  2  0
 15 13  1  0
 14 16  1  0
 14 17  1  0
 18 15  2  0
 16 19  1  0
 16 20  2  0
 17 21  2  0
 21 18  1  0
  4 22  2  0
  4 23  1  0
 24 23  1  0
 24 25  1  0
 25 26  1  0
 25 27  1  0
 26 28  1  0
 27 29  1  0
 27 30  1  0
 30 28  1  0
 28 31  1  0
 30 32  1  0
 33 31  1  0
 34 31  1  0
 35 33  2  0
 33 36  1  0
 37 34  2  0
 38 35  1  0
 36 39  2  0
 36 37  1  0
 40 38  2  0
 40 39  1  0
 39 41  1  0
  6 42  1  6
  7 43  1  0
  7 44  1  0
  8 45  1  0
  8 46  1  0
 12 47  1  0
 12 48  1  0
 15 49  1  0
 17 50  1  0
 18 51  1  0
 21 52  1  0
 24 53  1  0
 24 54  1  0
 25 55  1  0
 27 56  1  0
 28 57  1  0
 29 58  1  0
 30 59  1  0
 32 60  1  0
 34 61  1  0
 38 62  1  0
 41 63  1  0
 41 64  1  0
M  CHG  3   5  -1  16   1  19  -1
M  END
>  <EmbedRMS>  (107) 
0.08803775043659275

$$$$

     RDKit          3D

 64 67  0  0  0  0  0  0  0  0999 V2000
   10.2829   43.7755   33.8076 C   0  0  0  0  0  0  0  0  0  0  0  0
   11.4086   43.5915   34.3577 O   0  0  0  0  0  0  0  0  0  0  0  0
    9.3667   42.7319   33.7015 O   0  0  0  0  0  0  0  0  0  0  0  0
    9.8861   41.2347   34.2846 P   0  0  0  0  0  5  0  0  0  0  0  0
   10.3662   41.4697   35.8751 O   0  0  0  0  0  1  0  0  0  0  0  0
    9.9534   45.1117   33.2434 C   0  0  2  0  0  0  0  0  0  0  0  0
   11.0725   46.0268   33.4848 N   0  0  0  0  0  0  0  0  0  0  0  0
    8.6400   45.6440   33.8545 C   0  0  0  0  0  0  0  0  0  0  0  0
    8.2241   46.9352   33.2220 C   0  0  0  0  0  0  0  0  0  0  0  0
    8.5455   48.1443   33.8496 O   0  0  0  0  0  0  0  0  0  0  0  0
    7.6183   46.9241   32.1156 O   0  0  0  0  0  0  0  0  0  0  0  0
    8.1911   49.4194   33.3147 C   0  0  0  0  0  0  0  0  0  0  0  0
    6.6998   49.6666   33.4036 C   0  0  0  0  0  0  0  0  0  0  0  0
    6.0112   50.4348   32.4284 C   0  0  0  0  0  0  0  0  0  0  0  0
    5.9789   49.1415   34.4938 C   0  0  0  0  0  0  0  0  0  0  0  0
    6.7084   51.0922   31.3567 N   0  0  0  0  0  4  0  0  0  0  0  0
    4.6150   50.5756   32.5242 C   0  0  0  0  0  0  0  0  0  0  0  0
    4.5962   49.3086   34.5810 C   0  0  0  0  0  0  0  0  0  0  0  0
    7.8734   51.7799   31.6075 O   0  0  0  0  0  1  0  0  0  0  0  0
    6.1643   51.2174   30.2400 O   0  0  0  0  0  0  0  0  0  0  0  0
    3.9139   50.0136   33.5917 C   0  0  0  0  0  0  0  0  0  0  0  0
    8.8089   40.1914   34.2081 O   0  0  0  0  0  0  0  0  0  0  0  0
   11.2386   40.7916   33.3693 O   0  0  0  0  0  0  0  0  0  0  0  0
   10.9187   40.6906   31.9960 C   0  0  0  0  0  0  0  0  0  0  0  0
   11.5175   39.3824   31.4412 C   0  0  0  0  0  0  0  0  0  0  0  0
   12.7494   39.0893   32.0756 O   0  0  0  0  0  0  0  0  0  0  0  0
   10.6036   38.1900   31.6660 C   0  0  0  0  0  0  0  0  0  0  0  0
   12.9401   37.6834   32.0276 C   0  0  0  0  0  0  0  0  0  0  0  0
    9.6376   38.0785   30.6474 O   0  0  0  0  0  0  0  0  0  0  0  0
   11.5803   37.0204   31.6937 C   0  0  0  0  0  0  0  0  0  0  0  0
   13.4902   37.2177   33.3237 N   0  0  0  0  0  0  0  0  0  0  0  0
   11.6118   36.3193   30.4680 O   0  0  0  0  0  0  0  0  0  0  0  0
   14.4759   36.3271   33.5731 C   0  0  0  0  0  0  0  0  0  0  0  0
   13.1176   37.6317   34.5688 C   0  0  0  0  0  0  0  0  0  0  0  0
   15.2064   35.6141   32.6742 N   0  0  0  0  0  0  0  0  0  0  0  0
   14.6729   36.2274   34.9184 C   0  0  0  0  0  0  0  0  0  0  0  0
   13.8221   37.0457   35.5783 N   0  0  0  0  0  0  0  0  0  0  0  0
   16.1637   34.7597   33.1549 C   0  0  0  0  0  0  0  0  0  0  0  0
   15.6514   35.3493   35.4133 C   0  0  0  0  0  0  0  0  0  0  0  0
   16.3791   34.6312   34.5044 N   0  0  0  0  0  0  0  0  0  0  0  0
   15.9001   35.1935   36.8091 N   0  0  0  0  0  0  0  0  0  0  0  0
    9.8205   44.9853   32.1457 H   0  0  0  0  0  0  0  0  0  0  0  0
   10.9419   46.8854   32.9022 H   0  0  0  0  0  0  0  0  0  0  0  0
   11.0775   46.3244   34.4884 H   0  0  0  0  0  0  0  0  0  0  0  0
    8.7583   45.7914   34.9504 H   0  0  0  0  0  0  0  0  0  0  0  0
    7.8251   44.9025   33.7032 H   0  0  0  0  0  0  0  0  0  0  0  0
    8.5485   49.4672   32.2643 H   0  0  0  0  0  0  0  0  0  0  0  0
    8.7152   50.2065   33.8958 H   0  0  0  0  0  0  0  0  0  0  0  0
    6.4846   48.5866   35.2741 H   0  0  0  0  0  0  0  0  0  0  0  0
    4.0708   51.1479   31.7835 H   0  0  0  0  0  0  0  0  0  0  0  0
    4.0522   48.8872   35.4165 H   0  0  0  0  0  0  0  0  0  0  0  0
    2.8410   50.1393   33.6602 H   0  0  0  0  0  0  0  0  0  0  0  0
   11.3992   41.5454   31.4738 H   0  0  0  0  0  0  0  0  0  0  0  0
    9.8307   40.7395   31.7563 H   0  0  0  0  0  0  0  0  0  0  0  0
   11.6989   39.5091   30.3489 H   0  0  0  0  0  0  0  0  0  0  0  0
   10.1130   38.2589   32.6664 H   0  0  0  0  0  0  0  0  0  0  0  0
   13.6800   37.4628   31.2265 H   0  0  0  0  0  0  0  0  0  0  0  0
    8.8952   38.6908   30.8892 H   0  0  0  0  0  0  0  0  0  0  0  0
   11.2830   36.3060   32.4929 H   0  0  0  0  0  0  0  0  0  0  0  0
   11.8859   36.9589   29.7593 H   0  0  0  0  0  0  0  0  0  0  0  0
   12.3360   38.3600   34.7442 H   0  0  0  0  0  0  0  0  0  0  0  0
   16.7572   34.1793   32.4621 H   0  0  0  0  0  0  0  0  0  0  0  0
   16.6362   34.5318   37.1416 H   0  0  0  0  0  0  0  0  0  0  0  0
   15.3528   35.7356   37.5140 H   0  0  0  0  0  0  0  0  0  0  0  0
  1  2  2  0
  1  3  1  0
  3  4  1  0
  4  5  1  0
  6  1  1  0
  7  6  1  0
  6  8  1  0
  8  9  1  0
  9 10  1  0
  9 11  2  0
 10 12  1  0
 12 13  1  0
 13 14  2  0
 15 13  1  0
 14 16  1  0
 14 17  1  0
 18 15  2  0
 16 19  1  0
 16 20  2  0
 17 21  2  0
 21 18  1  0
  4 22  2  0
  4 23  1  0
 24 23  1  0
 24 25  1  0
 25 26  1  0
 25 27  1  0
 26 28  1  0
 27 29  1  0
 27 30  1  0
 30 28  1  0
 28 31  1  0
 30 32  1  0
 33 31  1  0
 34 31  1  0
 35 33  2  0
 33 36  1  0
 37 34  2  0
 38 35  1  0
 36 39  2  0
 36 37  1  0
 40 38  2  0
 40 39  1  0
 39 41  1  0
  6 42  1  6
  7 43  1  0
  7 44  1  0
  8 45  1  0
  8 46  1  0
 12 47  1  0
 12 48  1  0
 15 49  1  0
 17 50  1  0
 18 51  1  0
 21 52  1  0
 24 53  1  0
 24 54  1  0
 25 55  1  0
 27 56  1  0
 28 57  1  0
 29 58  1  0
 30 59  1  0
 32 60  1  0
 34 61  1  0
 38 62  1  0
 41 63  1  0
 41 64  1  0
M  CHG  3   5  -1  16   1  19  -1
M  END
>  <EmbedRMS>  (108) 
0.08803843056672851

$$$$

     RDKit          3D

 64 67  0  0  0  0  0  0  0  0999 V2000
   10.2885   43.7705   33.8003 C   0  0  0  0  0  0  0  0  0  0  0  0
   11.4105   43.5873   34.3577 O   0  0  0  0  0  0  0  0  0  0  0  0
    9.3688   42.7301   33.6972 O   0  0  0  0  0  0  0  0  0  0  0  0
    9.8855   41.2340   34.2841 P   0  0  0  0  0  5  0  0  0  0  0  0
   10.3647   41.4714   35.8748 O   0  0  0  0  0  1  0  0  0  0  0  0
    9.9523   45.1151   33.2553 C   0  0  2  0  0  0  0  0  0  0  0  0
   11.0690   46.0347   33.4803 N   0  0  0  0  0  0  0  0  0  0  0  0
    8.6596   45.6616   33.8955 C   0  0  0  0  0  0  0  0  0  0  0  0
    8.7956   45.8718   35.3753 C   0  0  0  0  0  0  0  0  0  0  0  0
    8.8451   44.7610   36.2246 O   0  0  0  0  0  0  0  0  0  0  0  0
    8.8798   47.0418   35.8388 O   0  0  0  0  0  0  0  0  0  0  0  0
    8.8915   44.8620   37.6456 C   0  0  0  0  0  0  0  0  0  0  0  0
    7.5563   45.3118   38.1903 C   0  0  0  0  0  0  0  0  0  0  0  0
    6.3418   44.6566   37.8505 C   0  0  0  0  0  0  0  0  0  0  0  0
    7.5171   46.4396   39.0306 C   0  0  0  0  0  0  0  0  0  0  0  0
    6.3175   43.4880   37.0098 N   0  0  0  0  0  4  0  0  0  0  0  0
    5.1267   45.1740   38.3362 C   0  0  0  0  0  0  0  0  0  0  0  0
    6.3018   46.9262   39.5135 C   0  0  0  0  0  0  0  0  0  0  0  0
    7.2715   42.5062   37.1422 O   0  0  0  0  0  1  0  0  0  0  0  0
    5.3425   43.2782   36.2587 O   0  0  0  0  0  0  0  0  0  0  0  0
    5.1088   46.2977   39.1632 C   0  0  0  0  0  0  0  0  0  0  0  0
    8.8076   40.1916   34.2086 O   0  0  0  0  0  0  0  0  0  0  0  0
   11.2382   40.7888   33.3696 O   0  0  0  0  0  0  0  0  0  0  0  0
   10.9197   40.6893   31.9955 C   0  0  0  0  0  0  0  0  0  0  0  0
   11.5172   39.3801   31.4398 C   0  0  0  0  0  0  0  0  0  0  0  0
   12.7480   39.0861   32.0732 O   0  0  0  0  0  0  0  0  0  0  0  0
   10.6031   38.1891   31.6667 C   0  0  0  0  0  0  0  0  0  0  0  0
   12.9336   37.6796   32.0279 C   0  0  0  0  0  0  0  0  0  0  0  0
    9.6397   38.0778   30.6456 O   0  0  0  0  0  0  0  0  0  0  0  0
   11.5739   37.0154   31.7057 C   0  0  0  0  0  0  0  0  0  0  0  0
   13.4903   37.2178   33.3231 N   0  0  0  0  0  0  0  0  0  0  0  0
   11.6210   36.3376   30.4695 O   0  0  0  0  0  0  0  0  0  0  0  0
   14.4761   36.3273   33.5725 C   0  0  0  0  0  0  0  0  0  0  0  0
   13.1178   37.6316   34.5684 C   0  0  0  0  0  0  0  0  0  0  0  0
   15.2063   35.6139   32.6737 N   0  0  0  0  0  0  0  0  0  0  0  0
   14.6733   36.2277   34.9180 C   0  0  0  0  0  0  0  0  0  0  0  0
   13.8225   37.0459   35.5779 N   0  0  0  0  0  0  0  0  0  0  0  0
   16.1636   34.7594   33.1546 C   0  0  0  0  0  0  0  0  0  0  0  0
   15.6515   35.3494   35.4129 C   0  0  0  0  0  0  0  0  0  0  0  0
   16.3791   34.6311   34.5041 N   0  0  0  0  0  0  0  0  0  0  0  0
   15.9001   35.1935   36.8088 N   0  0  0  0  0  0  0  0  0  0  0  0
    9.7806   45.0092   32.1604 H   0  0  0  0  0  0  0  0  0  0  0  0
   11.8795   45.7185   32.8984 H   0  0  0  0  0  0  0  0  0  0  0  0
   10.8044   46.9743   33.1042 H   0  0  0  0  0  0  0  0  0  0  0  0
    7.8206   44.9564   33.7101 H   0  0  0  0  0  0  0  0  0  0  0  0
    8.3861   46.6222   33.4065 H   0  0  0  0  0  0  0  0  0  0  0  0
    9.7118   45.5542   37.9377 H   0  0  0  0  0  0  0  0  0  0  0  0
    9.1479   43.8723   38.0753 H   0  0  0  0  0  0  0  0  0  0  0  0
    8.4297   46.9539   39.3054 H   0  0  0  0  0  0  0  0  0  0  0  0
    4.1888   44.6944   38.0860 H   0  0  0  0  0  0  0  0  0  0  0  0
    6.2851   47.7972   40.1560 H   0  0  0  0  0  0  0  0  0  0  0  0
    4.1672   46.6799   39.5360 H   0  0  0  0  0  0  0  0  0  0  0  0
    9.8319   40.7398   31.7551 H   0  0  0  0  0  0  0  0  0  0  0  0
   11.4018   41.5437   31.4743 H   0  0  0  0  0  0  0  0  0  0  0  0
   11.6981   39.5046   30.3472 H   0  0  0  0  0  0  0  0  0  0  0  0
   10.1090   38.2631   32.6650 H   0  0  0  0  0  0  0  0  0  0  0  0
   13.6656   37.4539   31.2207 H   0  0  0  0  0  0  0  0  0  0  0  0
    8.8966   38.6902   30.8851 H   0  0  0  0  0  0  0  0  0  0  0  0
   11.2846   36.3060   32.5175 H   0  0  0  0  0  0  0  0  0  0  0  0
   10.8523   35.7095   30.4590 H   0  0  0  0  0  0  0  0  0  0  0  0
   12.3353   38.3588   34.7439 H   0  0  0  0  0  0  0  0  0  0  0  0
   16.7570   34.1788   32.4619 H   0  0  0  0  0  0  0  0  0  0  0  0
   15.3529   35.7359   37.5136 H   0  0  0  0  0  0  0  0  0  0  0  0
   16.6360   34.5317   37.1413 H   0  0  0  0  0  0  0  0  0  0  0  0
  1  2  2  0
  1  3  1  0
  3  4  1  0
  4  5  1  0
  6  1  1  0
  7  6  1  0
  6  8  1  0
  8  9  1  0
  9 10  1  0
  9 11  2  0
 10 12  1  0
 12 13  1  0
 13 14  2  0
 15 13  1  0
 14 16  1  0
 14 17  1  0
 18 15  2  0
 16 19  1  0
 16 20  2  0
 17 21  2  0
 21 18  1  0
  4 22  2  0
  4 23  1  0
 24 23  1  0
 24 25  1  0
 25 26  1  0
 25 27  1  0
 26 28  1  0
 27 29  1  0
 27 30  1  0
 30 28  1  0
 28 31  1  0
 30 32  1  0
 33 31  1  0
 34 31  1  0
 35 33  2  0
 33 36  1  0
 37 34  2  0
 38 35  1  0
 36 39  2  0
 36 37  1  0
 40 38  2  0
 40 39  1  0
 39 41  1  0
  6 42  1  6
  7 43  1  0
  7 44  1  0
  8 45  1  0
  8 46  1  0
 12 47  1  0
 12 48  1  0
 15 49  1  0
 17 50  1  0
 18 51  1  0
 21 52  1  0
 24 53  1  0
 24 54  1  0
 25 55  1  0
 27 56  1  0
 28 57  1  0
 29 58  1  0
 30 59  1  0
 32 60  1  0
 34 61  1  0
 38 62  1  0
 41 63  1  0
 41 64  1  0
M  CHG  3   5  -1  16   1  19  -1
M  END
>  <EmbedRMS>  (109) 
0.08949453140154748

$$$$

     RDKit          3D

 64 67  0  0  0  0  0  0  0  0999 V2000
   10.2770   43.7779   33.8148 C   0  0  0  0  0  0  0  0  0  0  0  0
   11.4037   43.5936   34.3631 O   0  0  0  0  0  0  0  0  0  0  0  0
    9.3692   42.7294   33.6984 O   0  0  0  0  0  0  0  0  0  0  0  0
    9.8875   41.2338   34.2840 P   0  0  0  0  0  5  0  0  0  0  0  0
   10.3664   41.4699   35.8748 O   0  0  0  0  0  1  0  0  0  0  0  0
    9.9495   45.1172   33.2489 C   0  0  2  0  0  0  0  0  0  0  0  0
   11.0803   46.0198   33.4736 N   0  0  0  0  0  0  0  0  0  0  0  0
    8.6583   45.7134   33.8612 C   0  0  0  0  0  0  0  0  0  0  0  0
    7.3988   45.0435   33.3622 C   0  0  0  0  0  0  0  0  0  0  0  0
    6.6786   45.4888   32.2415 O   0  0  0  0  0  0  0  0  0  0  0  0
    6.9623   44.0407   33.9861 O   0  0  0  0  0  0  0  0  0  0  0  0
    6.9638   46.6642   31.4812 C   0  0  0  0  0  0  0  0  0  0  0  0
    8.1620   46.4582   30.5838 C   0  0  0  0  0  0  0  0  0  0  0  0
    9.1872   47.4311   30.4478 C   0  0  0  0  0  0  0  0  0  0  0  0
    8.2645   45.2510   29.8671 C   0  0  0  0  0  0  0  0  0  0  0  0
    9.0910   48.7260   31.0615 N   0  0  0  0  0  4  0  0  0  0  0  0
   10.3244   47.1271   29.6801 C   0  0  0  0  0  0  0  0  0  0  0  0
    9.3921   44.9765   29.0922 C   0  0  0  0  0  0  0  0  0  0  0  0
   10.2246   49.3437   31.5373 O   0  0  0  0  0  1  0  0  0  0  0  0
    8.0427   49.3948   30.9520 O   0  0  0  0  0  0  0  0  0  0  0  0
   10.4263   45.9070   29.0102 C   0  0  0  0  0  0  0  0  0  0  0  0
    8.8098   40.1910   34.2076 O   0  0  0  0  0  0  0  0  0  0  0  0
   11.2397   40.7909   33.3689 O   0  0  0  0  0  0  0  0  0  0  0  0
   10.9194   40.6909   31.9956 C   0  0  0  0  0  0  0  0  0  0  0  0
   11.5177   39.3825   31.4408 C   0  0  0  0  0  0  0  0  0  0  0  0
   12.7496   39.0893   32.0753 O   0  0  0  0  0  0  0  0  0  0  0  0
   10.6036   38.1902   31.6658 C   0  0  0  0  0  0  0  0  0  0  0  0
   12.9401   37.6833   32.0275 C   0  0  0  0  0  0  0  0  0  0  0  0
    9.6376   38.0787   30.6473 O   0  0  0  0  0  0  0  0  0  0  0  0
   11.5802   37.0205   31.6936 C   0  0  0  0  0  0  0  0  0  0  0  0
   13.4902   37.2177   33.3237 N   0  0  0  0  0  0  0  0  0  0  0  0
   11.6116   36.3193   30.4680 O   0  0  0  0  0  0  0  0  0  0  0  0
   14.4758   36.3272   33.5731 C   0  0  0  0  0  0  0  0  0  0  0  0
   13.1175   37.6318   34.5687 C   0  0  0  0  0  0  0  0  0  0  0  0
   15.2064   35.6142   32.6742 N   0  0  0  0  0  0  0  0  0  0  0  0
   14.6729   36.2274   34.9184 C   0  0  0  0  0  0  0  0  0  0  0  0
   13.8221   37.0458   35.5783 N   0  0  0  0  0  0  0  0  0  0  0  0
   16.1637   34.7597   33.1549 C   0  0  0  0  0  0  0  0  0  0  0  0
   15.6513   35.3493   35.4132 C   0  0  0  0  0  0  0  0  0  0  0  0
   16.3791   34.6312   34.5044 N   0  0  0  0  0  0  0  0  0  0  0  0
   15.9001   35.1935   36.8091 N   0  0  0  0  0  0  0  0  0  0  0  0
    9.8228   44.9864   32.1560 H   0  0  0  0  0  0  0  0  0  0  0  0
   10.9277   46.8930   32.9186 H   0  0  0  0  0  0  0  0  0  0  0  0
   11.1156   46.2951   34.4831 H   0  0  0  0  0  0  0  0  0  0  0  0
    8.6123   46.7994   33.6449 H   0  0  0  0  0  0  0  0  0  0  0  0
    8.7007   45.6267   34.9696 H   0  0  0  0  0  0  0  0  0  0  0  0
    7.0763   47.5218   32.1725 H   0  0  0  0  0  0  0  0  0  0  0  0
    6.0876   46.8824   30.8357 H   0  0  0  0  0  0  0  0  0  0  0  0
    7.4805   44.5064   29.9314 H   0  0  0  0  0  0  0  0  0  0  0  0
   11.1240   47.8498   29.5783 H   0  0  0  0  0  0  0  0  0  0  0  0
    9.4680   44.0360   28.5620 H   0  0  0  0  0  0  0  0  0  0  0  0
   11.3029   45.6892   28.4139 H   0  0  0  0  0  0  0  0  0  0  0  0
   11.4000   41.5458   31.4736 H   0  0  0  0  0  0  0  0  0  0  0  0
    9.8314   40.7404   31.7559 H   0  0  0  0  0  0  0  0  0  0  0  0
   11.6991   39.5092   30.3485 H   0  0  0  0  0  0  0  0  0  0  0  0
   10.1131   38.2594   32.6662 H   0  0  0  0  0  0  0  0  0  0  0  0
   13.6799   37.4625   31.2264 H   0  0  0  0  0  0  0  0  0  0  0  0
    8.8960   38.6924   30.8882 H   0  0  0  0  0  0  0  0  0  0  0  0
   11.2828   36.3063   32.4929 H   0  0  0  0  0  0  0  0  0  0  0  0
   11.8858   36.9588   29.7592 H   0  0  0  0  0  0  0  0  0  0  0  0
   12.3360   38.3600   34.7441 H   0  0  0  0  0  0  0  0  0  0  0  0
   16.7572   34.1793   32.4621 H   0  0  0  0  0  0  0  0  0  0  0  0
   16.6362   34.5318   37.1415 H   0  0  0  0  0  0  0  0  0  0  0  0
   15.3528   35.7357   37.5140 H   0  0  0  0  0  0  0  0  0  0  0  0
  1  2  2  0
  1  3  1  0
  3  4  1  0
  4  5  1  0
  6  1  1  0
  7  6  1  0
  6  8  1  0
  8  9  1  0
  9 10  1  0
  9 11  2  0
 10 12  1  0
 12 13  1  0
 13 14  2  0
 15 13  1  0
 14 16  1  0
 14 17  1  0
 18 15  2  0
 16 19  1  0
 16 20  2  0
 17 21  2  0
 21 18  1  0
  4 22  2  0
  4 23  1  0
 24 23  1  0
 24 25  1  0
 25 26  1  0
 25 27  1  0
 26 28  1  0
 27 29  1  0
 27 30  1  0
 30 28  1  0
 28 31  1  0
 30 32  1  0
 33 31  1  0
 34 31  1  0
 35 33  2  0
 33 36  1  0
 37 34  2  0
 38 35  1  0
 36 39  2  0
 36 37  1  0
 40 38  2  0
 40 39  1  0
 39 41  1  0
  6 42  1  6
  7 43  1  0
  7 44  1  0
  8 45  1  0
  8 46  1  0
 12 47  1  0
 12 48  1  0
 15 49  1  0
 17 50  1  0
 18 51  1  0
 21 52  1  0
 24 53  1  0
 24 54  1  0
 25 55  1  0
 27 56  1  0
 28 57  1  0
 29 58  1  0
 30 59  1  0
 32 60  1  0
 34 61  1  0
 38 62  1  0
 41 63  1  0
 41 64  1  0
M  CHG  3   5  -1  16   1  19  -1
M  END
>  <EmbedRMS>  (110) 
0.08828597369825511

$$$$

     RDKit          3D

 64 67  0  0  0  0  0  0  0  0999 V2000
   10.2843   43.7750   33.8084 C   0  0  0  0  0  0  0  0  0  0  0  0
   11.4094   43.5915   34.3596 O   0  0  0  0  0  0  0  0  0  0  0  0
    9.3679   42.7314   33.7017 O   0  0  0  0  0  0  0  0  0  0  0  0
    9.8861   41.2344   34.2846 P   0  0  0  0  0  5  0  0  0  0  0  0
   10.3672   41.4695   35.8748 O   0  0  0  0  0  1  0  0  0  0  0  0
    9.9591   45.1070   33.2330 C   0  0  2  0  0  0  0  0  0  0  0  0
   11.0664   46.0310   33.4909 N   0  0  0  0  0  0  0  0  0  0  0  0
    8.6278   45.6345   33.8123 C   0  0  0  0  0  0  0  0  0  0  0  0
    8.1280   46.8414   33.0608 C   0  0  0  0  0  0  0  0  0  0  0  0
    7.3630   46.7451   31.8873 O   0  0  0  0  0  0  0  0  0  0  0  0
    8.4314   47.9870   33.4864 O   0  0  0  0  0  0  0  0  0  0  0  0
    6.9156   45.5238   31.2937 C   0  0  0  0  0  0  0  0  0  0  0  0
    5.8077   44.8783   32.0987 C   0  0  0  0  0  0  0  0  0  0  0  0
    5.6772   43.4666   32.1964 C   0  0  0  0  0  0  0  0  0  0  0  0
    4.8781   45.6986   32.7660 C   0  0  0  0  0  0  0  0  0  0  0  0
    6.5265   42.5717   31.4581 N   0  0  0  0  0  4  0  0  0  0  0  0
    4.6822   42.9253   33.0285 C   0  0  0  0  0  0  0  0  0  0  0  0
    3.8837   45.1403   33.5701 C   0  0  0  0  0  0  0  0  0  0  0  0
    6.8582   41.3467   31.9895 O   0  0  0  0  0  1  0  0  0  0  0  0
    6.7840   42.7946   30.2573 O   0  0  0  0  0  0  0  0  0  0  0  0
    3.7939   43.7570   33.7112 C   0  0  0  0  0  0  0  0  0  0  0  0
    8.8086   40.1914   34.2096 O   0  0  0  0  0  0  0  0  0  0  0  0
   11.2371   40.7907   33.3676 O   0  0  0  0  0  0  0  0  0  0  0  0
   10.9144   40.6884   31.9949 C   0  0  0  0  0  0  0  0  0  0  0  0
   11.5255   39.3874   31.4365 C   0  0  0  0  0  0  0  0  0  0  0  0
   12.7487   39.0896   32.0819 O   0  0  0  0  0  0  0  0  0  0  0  0
   10.6119   38.1895   31.6461 C   0  0  0  0  0  0  0  0  0  0  0  0
   12.9371   37.6829   32.0301 C   0  0  0  0  0  0  0  0  0  0  0  0
    9.6146   38.0841   30.6538 O   0  0  0  0  0  0  0  0  0  0  0  0
   11.5791   37.0139   31.7014 C   0  0  0  0  0  0  0  0  0  0  0  0
   13.4905   37.2171   33.3242 N   0  0  0  0  0  0  0  0  0  0  0  0
   11.6214   36.3254   30.4725 O   0  0  0  0  0  0  0  0  0  0  0  0
   14.4762   36.3267   33.5730 C   0  0  0  0  0  0  0  0  0  0  0  0
   13.1181   37.6309   34.5694 C   0  0  0  0  0  0  0  0  0  0  0  0
   15.2065   35.6138   32.6739 N   0  0  0  0  0  0  0  0  0  0  0  0
   14.6735   36.2270   34.9184 C   0  0  0  0  0  0  0  0  0  0  0  0
   13.8228   37.0451   35.5787 N   0  0  0  0  0  0  0  0  0  0  0  0
   16.1638   34.7593   33.1546 C   0  0  0  0  0  0  0  0  0  0  0  0
   15.6518   35.3489   35.4131 C   0  0  0  0  0  0  0  0  0  0  0  0
   16.3794   34.6308   34.5041 N   0  0  0  0  0  0  0  0  0  0  0  0
   15.9005   35.1931   36.8090 N   0  0  0  0  0  0  0  0  0  0  0  0
    9.8634   44.9701   32.1348 H   0  0  0  0  0  0  0  0  0  0  0  0
   11.0674   46.3117   34.4993 H   0  0  0  0  0  0  0  0  0  0  0  0
   10.9231   46.8976   32.9237 H   0  0  0  0  0  0  0  0  0  0  0  0
    7.8553   44.8407   33.7861 H   0  0  0  0  0  0  0  0  0  0  0  0
    8.7609   45.8966   34.8850 H   0  0  0  0  0  0  0  0  0  0  0  0
    6.5222   45.7490   30.2808 H   0  0  0  0  0  0  0  0  0  0  0  0
    7.7835   44.8472   31.1735 H   0  0  0  0  0  0  0  0  0  0  0  0
    4.9320   46.7767   32.6791 H   0  0  0  0  0  0  0  0  0  0  0  0
    4.5758   41.8524   33.1273 H   0  0  0  0  0  0  0  0  0  0  0  0
    3.1844   45.7827   34.0896 H   0  0  0  0  0  0  0  0  0  0  0  0
    3.0244   43.3269   34.3393 H   0  0  0  0  0  0  0  0  0  0  0  0
   11.3806   41.5508   31.4721 H   0  0  0  0  0  0  0  0  0  0  0  0
    9.8240   40.7179   31.7587 H   0  0  0  0  0  0  0  0  0  0  0  0
   11.7285   39.5290   30.3504 H   0  0  0  0  0  0  0  0  0  0  0  0
   10.1135   38.2721   32.6379 H   0  0  0  0  0  0  0  0  0  0  0  0
   13.6723   37.4640   31.2239 H   0  0  0  0  0  0  0  0  0  0  0  0
   10.0531   38.1091   29.7639 H   0  0  0  0  0  0  0  0  0  0  0  0
   11.2644   36.3137   32.5107 H   0  0  0  0  0  0  0  0  0  0  0  0
   12.1548   35.5034   30.6316 H   0  0  0  0  0  0  0  0  0  0  0  0
   12.3361   38.3587   34.7451 H   0  0  0  0  0  0  0  0  0  0  0  0
   16.7573   34.1789   32.4618 H   0  0  0  0  0  0  0  0  0  0  0  0
   16.6365   34.5314   37.1414 H   0  0  0  0  0  0  0  0  0  0  0  0
   15.3533   35.7353   37.5139 H   0  0  0  0  0  0  0  0  0  0  0  0
  1  2  2  0
  1  3  1  0
  3  4  1  0
  4  5  1  0
  6  1  1  0
  7  6  1  0
  6  8  1  0
  8  9  1  0
  9 10  1  0
  9 11  2  0
 10 12  1  0
 12 13  1  0
 13 14  2  0
 15 13  1  0
 14 16  1  0
 14 17  1  0
 18 15  2  0
 16 19  1  0
 16 20  2  0
 17 21  2  0
 21 18  1  0
  4 22  2  0
  4 23  1  0
 24 23  1  0
 24 25  1  0
 25 26  1  0
 25 27  1  0
 26 28  1  0
 27 29  1  0
 27 30  1  0
 30 28  1  0
 28 31  1  0
 30 32  1  0
 33 31  1  0
 34 31  1  0
 35 33  2  0
 33 36  1  0
 37 34  2  0
 38 35  1  0
 36 39  2  0
 36 37  1  0
 40 38  2  0
 40 39  1  0
 39 41  1  0
  6 42  1  6
  7 43  1  0
  7 44  1  0
  8 45  1  0
  8 46  1  0
 12 47  1  0
 12 48  1  0
 15 49  1  0
 17 50  1  0
 18 51  1  0
 21 52  1  0
 24 53  1  0
 24 54  1  0
 25 55  1  0
 27 56  1  0
 28 57  1  0
 29 58  1  0
 30 59  1  0
 32 60  1  0
 34 61  1  0
 38 62  1  0
 41 63  1  0
 41 64  1  0
M  CHG  3   5  -1  16   1  19  -1
M  END
>  <EmbedRMS>  (111) 
0.08759817791989429

$$$$

     RDKit          3D

 64 67  0  0  0  0  0  0  0  0999 V2000
   10.2820   43.7755   33.8092 C   0  0  0  0  0  0  0  0  0  0  0  0
   11.4049   43.5921   34.3653 O   0  0  0  0  0  0  0  0  0  0  0  0
    9.3694   42.7296   33.6989 O   0  0  0  0  0  0  0  0  0  0  0  0
    9.8873   41.2334   34.2830 P   0  0  0  0  0  5  0  0  0  0  0  0
   10.3676   41.4691   35.8736 O   0  0  0  0  0  1  0  0  0  0  0  0
    9.9500   45.1194   33.2509 C   0  0  2  0  0  0  0  0  0  0  0  0
   11.0766   46.0270   33.4740 N   0  0  0  0  0  0  0  0  0  0  0  0
    8.6822   45.6971   33.9152 C   0  0  0  0  0  0  0  0  0  0  0  0
    7.4514   44.9262   33.5438 C   0  0  0  0  0  0  0  0  0  0  0  0
    7.0535   44.8688   32.2053 O   0  0  0  0  0  0  0  0  0  0  0  0
    6.7950   44.3232   34.4365 O   0  0  0  0  0  0  0  0  0  0  0  0
    5.9651   44.0659   31.7624 C   0  0  0  0  0  0  0  0  0  0  0  0
    5.8297   44.1835   30.2667 C   0  0  0  0  0  0  0  0  0  0  0  0
    6.6102   43.4024   29.3719 C   0  0  0  0  0  0  0  0  0  0  0  0
    4.8971   45.0987   29.7464 C   0  0  0  0  0  0  0  0  0  0  0  0
    7.6204   42.4902   29.8380 N   0  0  0  0  0  4  0  0  0  0  0  0
    6.3882   43.5212   27.9886 C   0  0  0  0  0  0  0  0  0  0  0  0
    4.7057   45.2141   28.3689 C   0  0  0  0  0  0  0  0  0  0  0  0
    7.9128   41.3585   29.1120 O   0  0  0  0  0  1  0  0  0  0  0  0
    8.3657   42.8011   30.7889 O   0  0  0  0  0  0  0  0  0  0  0  0
    5.4440   44.4213   27.4922 C   0  0  0  0  0  0  0  0  0  0  0  0
    8.8087   40.1916   34.2077 O   0  0  0  0  0  0  0  0  0  0  0  0
   11.2382   40.7902   33.3652 O   0  0  0  0  0  0  0  0  0  0  0  0
   10.9129   40.6832   31.9931 C   0  0  0  0  0  0  0  0  0  0  0  0
   11.5167   39.3769   31.4390 C   0  0  0  0  0  0  0  0  0  0  0  0
   12.7472   39.0853   32.0738 O   0  0  0  0  0  0  0  0  0  0  0  0
   10.6049   38.1863   31.6665 C   0  0  0  0  0  0  0  0  0  0  0  0
   12.9346   37.6790   32.0281 C   0  0  0  0  0  0  0  0  0  0  0  0
    9.6379   38.0917   30.6484 O   0  0  0  0  0  0  0  0  0  0  0  0
   11.5762   37.0126   31.7053 C   0  0  0  0  0  0  0  0  0  0  0  0
   13.4909   37.2176   33.3233 N   0  0  0  0  0  0  0  0  0  0  0  0
   11.6236   36.3369   30.4681 O   0  0  0  0  0  0  0  0  0  0  0  0
   14.4765   36.3271   33.5727 C   0  0  0  0  0  0  0  0  0  0  0  0
   13.1182   37.6315   34.5685 C   0  0  0  0  0  0  0  0  0  0  0  0
   15.2066   35.6137   32.6739 N   0  0  0  0  0  0  0  0  0  0  0  0
   14.6736   36.2276   34.9182 C   0  0  0  0  0  0  0  0  0  0  0  0
   13.8227   37.0457   35.5781 N   0  0  0  0  0  0  0  0  0  0  0  0
   16.1638   34.7592   33.1548 C   0  0  0  0  0  0  0  0  0  0  0  0
   15.6517   35.3493   35.4131 C   0  0  0  0  0  0  0  0  0  0  0  0
   16.3792   34.6309   34.5043 N   0  0  0  0  0  0  0  0  0  0  0  0
   15.9002   35.1934   36.8090 N   0  0  0  0  0  0  0  0  0  0  0  0
    9.7801   45.0167   32.1549 H   0  0  0  0  0  0  0  0  0  0  0  0
   11.8906   45.6889   32.9092 H   0  0  0  0  0  0  0  0  0  0  0  0
   10.8349   46.9628   33.0734 H   0  0  0  0  0  0  0  0  0  0  0  0
    8.5323   46.7463   33.5816 H   0  0  0  0  0  0  0  0  0  0  0  0
    8.8073   45.7122   35.0209 H   0  0  0  0  0  0  0  0  0  0  0  0
    6.1295   43.0049   32.0503 H   0  0  0  0  0  0  0  0  0  0  0  0
    5.0313   44.3997   32.2664 H   0  0  0  0  0  0  0  0  0  0  0  0
    4.3063   45.7182   30.4101 H   0  0  0  0  0  0  0  0  0  0  0  0
    6.9652   42.9301   27.2888 H   0  0  0  0  0  0  0  0  0  0  0  0
    3.9794   45.9165   27.9808 H   0  0  0  0  0  0  0  0  0  0  0  0
    5.2909   44.5101   26.4243 H   0  0  0  0  0  0  0  0  0  0  0  0
    9.8224   40.7112   31.7603 H   0  0  0  0  0  0  0  0  0  0  0  0
   11.3797   41.5416   31.4646 H   0  0  0  0  0  0  0  0  0  0  0  0
   11.6987   39.5014   30.3465 H   0  0  0  0  0  0  0  0  0  0  0  0
   10.1097   38.2764   32.6625 H   0  0  0  0  0  0  0  0  0  0  0  0
   13.6674   37.4544   31.2212 H   0  0  0  0  0  0  0  0  0  0  0  0
    8.9767   37.4174   30.9537 H   0  0  0  0  0  0  0  0  0  0  0  0
   11.2862   36.3037   32.5173 H   0  0  0  0  0  0  0  0  0  0  0  0
   10.8687   35.6922   30.4650 H   0  0  0  0  0  0  0  0  0  0  0  0
   12.3355   38.3586   34.7439 H   0  0  0  0  0  0  0  0  0  0  0  0
   16.7572   34.1786   32.4621 H   0  0  0  0  0  0  0  0  0  0  0  0
   15.3530   35.7358   37.5138 H   0  0  0  0  0  0  0  0  0  0  0  0
   16.6361   34.5316   37.1415 H   0  0  0  0  0  0  0  0  0  0  0  0
  1  2  2  0
  1  3  1  0
  3  4  1  0
  4  5  1  0
  6  1  1  0
  7  6  1  0
  6  8  1  0
  8  9  1  0
  9 10  1  0
  9 11  2  0
 10 12  1  0
 12 13  1  0
 13 14  2  0
 15 13  1  0
 14 16  1  0
 14 17  1  0
 18 15  2  0
 16 19  1  0
 16 20  2  0
 17 21  2  0
 21 18  1  0
  4 22  2  0
  4 23  1  0
 24 23  1  0
 24 25  1  0
 25 26  1  0
 25 27  1  0
 26 28  1  0
 27 29  1  0
 27 30  1  0
 30 28  1  0
 28 31  1  0
 30 32  1  0
 33 31  1  0
 34 31  1  0
 35 33  2  0
 33 36  1  0
 37 34  2  0
 38 35  1  0
 36 39  2  0
 36 37  1  0
 40 38  2  0
 40 39  1  0
 39 41  1  0
  6 42  1  6
  7 43  1  0
  7 44  1  0
  8 45  1  0
  8 46  1  0
 12 47  1  0
 12 48  1  0
 15 49  1  0
 17 50  1  0
 18 51  1  0
 21 52  1  0
 24 53  1  0
 24 54  1  0
 25 55  1  0
 27 56  1  0
 28 57  1  0
 29 58  1  0
 30 59  1  0
 32 60  1  0
 34 61  1  0
 38 62  1  0
 41 63  1  0
 41 64  1  0
M  CHG  3   5  -1  16   1  19  -1
M  END
>  <EmbedRMS>  (112) 
0.08925058855271378

$$$$

     RDKit          3D

 64 67  0  0  0  0  0  0  0  0999 V2000
   10.2803   43.7763   33.8094 C   0  0  0  0  0  0  0  0  0  0  0  0
   11.4068   43.5912   34.3578 O   0  0  0  0  0  0  0  0  0  0  0  0
    9.3670   42.7310   33.7004 O   0  0  0  0  0  0  0  0  0  0  0  0
    9.8866   41.2343   34.2830 P   0  0  0  0  0  5  0  0  0  0  0  0
   10.3675   41.4694   35.8734 O   0  0  0  0  0  1  0  0  0  0  0  0
    9.9504   45.1180   33.2504 C   0  0  2  0  0  0  0  0  0  0  0  0
   11.0774   46.0242   33.4785 N   0  0  0  0  0  0  0  0  0  0  0  0
    8.6612   45.6949   33.8775 C   0  0  0  0  0  0  0  0  0  0  0  0
    7.4352   44.9661   33.4175 C   0  0  0  0  0  0  0  0  0  0  0  0
    7.1032   44.9714   32.0604 O   0  0  0  0  0  0  0  0  0  0  0  0
    6.7161   44.3544   34.2540 O   0  0  0  0  0  0  0  0  0  0  0  0
    5.9588   44.3009   31.5425 C   0  0  0  0  0  0  0  0  0  0  0  0
    5.9662   44.3815   30.0363 C   0  0  0  0  0  0  0  0  0  0  0  0
    7.0642   43.9166   29.2603 C   0  0  0  0  0  0  0  0  0  0  0  0
    4.8686   44.9750   29.3857 C   0  0  0  0  0  0  0  0  0  0  0  0
    8.2115   43.2859   29.8590 N   0  0  0  0  0  4  0  0  0  0  0  0
    7.0382   44.0913   27.8653 C   0  0  0  0  0  0  0  0  0  0  0  0
    4.8574   45.1228   27.9982 C   0  0  0  0  0  0  0  0  0  0  0  0
    9.4464   43.3952   29.2619 O   0  0  0  0  0  1  0  0  0  0  0  0
    8.0793   42.5034   30.8214 O   0  0  0  0  0  0  0  0  0  0  0  0
    5.9417   44.6863   27.2402 C   0  0  0  0  0  0  0  0  0  0  0  0
    8.8087   40.1917   34.2079 O   0  0  0  0  0  0  0  0  0  0  0  0
   11.2380   40.7914   33.3653 O   0  0  0  0  0  0  0  0  0  0  0  0
   10.9132   40.6835   31.9932 C   0  0  0  0  0  0  0  0  0  0  0  0
   11.5170   39.3770   31.4393 C   0  0  0  0  0  0  0  0  0  0  0  0
   12.7474   39.0854   32.0741 O   0  0  0  0  0  0  0  0  0  0  0  0
   10.6051   38.1863   31.6667 C   0  0  0  0  0  0  0  0  0  0  0  0
   12.9348   37.6790   32.0282 C   0  0  0  0  0  0  0  0  0  0  0  0
    9.6381   38.0916   30.6486 O   0  0  0  0  0  0  0  0  0  0  0  0
   11.5764   37.0127   31.7054 C   0  0  0  0  0  0  0  0  0  0  0  0
   13.4910   37.2176   33.3234 N   0  0  0  0  0  0  0  0  0  0  0  0
   11.6237   36.3370   30.4681 O   0  0  0  0  0  0  0  0  0  0  0  0
   14.4765   36.3271   33.5727 C   0  0  0  0  0  0  0  0  0  0  0  0
   13.1182   37.6315   34.5685 C   0  0  0  0  0  0  0  0  0  0  0  0
   15.2066   35.6137   32.6739 N   0  0  0  0  0  0  0  0  0  0  0  0
   14.6736   36.2275   34.9182 C   0  0  0  0  0  0  0  0  0  0  0  0
   13.8227   37.0457   35.5781 N   0  0  0  0  0  0  0  0  0  0  0  0
   16.1639   34.7592   33.1548 C   0  0  0  0  0  0  0  0  0  0  0  0
   15.6517   35.3492   35.4131 C   0  0  0  0  0  0  0  0  0  0  0  0
   16.3793   34.6309   34.5043 N   0  0  0  0  0  0  0  0  0  0  0  0
   15.9003   35.1934   36.8090 N   0  0  0  0  0  0  0  0  0  0  0  0
    9.8109   45.0053   32.1519 H   0  0  0  0  0  0  0  0  0  0  0  0
   11.1229   46.2812   34.4926 H   0  0  0  0  0  0  0  0  0  0  0  0
   10.9102   46.9069   32.9425 H   0  0  0  0  0  0  0  0  0  0  0  0
    8.7308   45.6650   34.9877 H   0  0  0  0  0  0  0  0  0  0  0  0
    8.5502   46.7594   33.5787 H   0  0  0  0  0  0  0  0  0  0  0  0
    5.9547   43.2364   31.8589 H   0  0  0  0  0  0  0  0  0  0  0  0
    5.0457   44.7735   31.9662 H   0  0  0  0  0  0  0  0  0  0  0  0
    4.0197   45.3356   29.9535 H   0  0  0  0  0  0  0  0  0  0  0  0
    7.8646   43.7493   27.2553 H   0  0  0  0  0  0  0  0  0  0  0  0
    4.0080   45.5835   27.5104 H   0  0  0  0  0  0  0  0  0  0  0  0
    5.9320   44.8063   26.1645 H   0  0  0  0  0  0  0  0  0  0  0  0
    9.8232   40.7103   31.7608 H   0  0  0  0  0  0  0  0  0  0  0  0
   11.3792   41.5421   31.4641 H   0  0  0  0  0  0  0  0  0  0  0  0
   11.6991   39.5014   30.3467 H   0  0  0  0  0  0  0  0  0  0  0  0
   10.1100   38.2764   32.6627 H   0  0  0  0  0  0  0  0  0  0  0  0
   13.6676   37.4545   31.2214 H   0  0  0  0  0  0  0  0  0  0  0  0
    8.9775   37.4165   30.9535 H   0  0  0  0  0  0  0  0  0  0  0  0
   11.2863   36.3038   32.5173 H   0  0  0  0  0  0  0  0  0  0  0  0
   10.8691   35.6920   30.4652 H   0  0  0  0  0  0  0  0  0  0  0  0
   12.3356   38.3586   34.7439 H   0  0  0  0  0  0  0  0  0  0  0  0
   16.7573   34.1786   32.4621 H   0  0  0  0  0  0  0  0  0  0  0  0
   15.3530   35.7357   37.5138 H   0  0  0  0  0  0  0  0  0  0  0  0
   16.6361   34.5315   37.1416 H   0  0  0  0  0  0  0  0  0  0  0  0
  1  2  2  0
  1  3  1  0
  3  4  1  0
  4  5  1  0
  6  1  1  0
  7  6  1  0
  6  8  1  0
  8  9  1  0
  9 10  1  0
  9 11  2  0
 10 12  1  0
 12 13  1  0
 13 14  2  0
 15 13  1  0
 14 16  1  0
 14 17  1  0
 18 15  2  0
 16 19  1  0
 16 20  2  0
 17 21  2  0
 21 18  1  0
  4 22  2  0
  4 23  1  0
 24 23  1  0
 24 25  1  0
 25 26  1  0
 25 27  1  0
 26 28  1  0
 27 29  1  0
 27 30  1  0
 30 28  1  0
 28 31  1  0
 30 32  1  0
 33 31  1  0
 34 31  1  0
 35 33  2  0
 33 36  1  0
 37 34  2  0
 38 35  1  0
 36 39  2  0
 36 37  1  0
 40 38  2  0
 40 39  1  0
 39 41  1  0
  6 42  1  6
  7 43  1  0
  7 44  1  0
  8 45  1  0
  8 46  1  0
 12 47  1  0
 12 48  1  0
 15 49  1  0
 17 50  1  0
 18 51  1  0
 21 52  1  0
 24 53  1  0
 24 54  1  0
 25 55  1  0
 27 56  1  0
 28 57  1  0
 29 58  1  0
 30 59  1  0
 32 60  1  0
 34 61  1  0
 38 62  1  0
 41 63  1  0
 41 64  1  0
M  CHG  3   5  -1  16   1  19  -1
M  END
>  <EmbedRMS>  (113) 
0.0889346619944486

$$$$

     RDKit          3D

 64 67  0  0  0  0  0  0  0  0999 V2000
   10.2863   43.7710   33.8101 C   0  0  0  0  0  0  0  0  0  0  0  0
   11.4101   43.5818   34.3619 O   0  0  0  0  0  0  0  0  0  0  0  0
    9.3669   42.7308   33.7022 O   0  0  0  0  0  0  0  0  0  0  0  0
    9.8846   41.2330   34.2845 P   0  0  0  0  0  5  0  0  0  0  0  0
   10.3648   41.4676   35.8753 O   0  0  0  0  0  1  0  0  0  0  0  0
    9.9612   45.1120   33.2465 C   0  0  2  0  0  0  0  0  0  0  0  0
   11.0651   46.0483   33.4750 N   0  0  0  0  0  0  0  0  0  0  0  0
    8.6646   45.6568   33.8681 C   0  0  0  0  0  0  0  0  0  0  0  0
    8.2714   46.9568   33.2382 C   0  0  0  0  0  0  0  0  0  0  0  0
    7.6909   46.9543   31.9671 O   0  0  0  0  0  0  0  0  0  0  0  0
    8.4954   48.0414   33.8422 O   0  0  0  0  0  0  0  0  0  0  0  0
    7.3112   48.1502   31.2908 C   0  0  0  0  0  0  0  0  0  0  0  0
    6.7024   47.8386   29.9424 C   0  0  0  0  0  0  0  0  0  0  0  0
    6.7814   48.7579   28.8627 C   0  0  0  0  0  0  0  0  0  0  0  0
    6.0146   46.6229   29.7553 C   0  0  0  0  0  0  0  0  0  0  0  0
    7.3757   50.0583   29.0204 N   0  0  0  0  0  4  0  0  0  0  0  0
    6.2501   48.3961   27.6112 C   0  0  0  0  0  0  0  0  0  0  0  0
    5.4780   46.2915   28.5104 C   0  0  0  0  0  0  0  0  0  0  0  0
    7.1194   50.8079   30.1454 O   0  0  0  0  0  1  0  0  0  0  0  0
    7.9698   50.5956   28.0628 O   0  0  0  0  0  0  0  0  0  0  0  0
    5.6060   47.1708   27.4376 C   0  0  0  0  0  0  0  0  0  0  0  0
    8.8073   40.1902   34.2075 O   0  0  0  0  0  0  0  0  0  0  0  0
   11.2377   40.7903   33.3696 O   0  0  0  0  0  0  0  0  0  0  0  0
   10.9186   40.6905   31.9961 C   0  0  0  0  0  0  0  0  0  0  0  0
   11.5174   39.3824   31.4411 C   0  0  0  0  0  0  0  0  0  0  0  0
   12.7494   39.0893   32.0756 O   0  0  0  0  0  0  0  0  0  0  0  0
   10.6036   38.1899   31.6659 C   0  0  0  0  0  0  0  0  0  0  0  0
   12.9401   37.6834   32.0276 C   0  0  0  0  0  0  0  0  0  0  0  0
    9.6376   38.0785   30.6474 O   0  0  0  0  0  0  0  0  0  0  0  0
   11.5803   37.0204   31.6937 C   0  0  0  0  0  0  0  0  0  0  0  0
   13.4902   37.2177   33.3237 N   0  0  0  0  0  0  0  0  0  0  0  0
   11.6118   36.3193   30.4680 O   0  0  0  0  0  0  0  0  0  0  0  0
   14.4759   36.3271   33.5731 C   0  0  0  0  0  0  0  0  0  0  0  0
   13.1176   37.6317   34.5688 C   0  0  0  0  0  0  0  0  0  0  0  0
   15.2064   35.6141   32.6742 N   0  0  0  0  0  0  0  0  0  0  0  0
   14.6729   36.2274   34.9184 C   0  0  0  0  0  0  0  0  0  0  0  0
   13.8221   37.0457   35.5783 N   0  0  0  0  0  0  0  0  0  0  0  0
   16.1637   34.7597   33.1549 C   0  0  0  0  0  0  0  0  0  0  0  0
   15.6514   35.3493   35.4132 C   0  0  0  0  0  0  0  0  0  0  0  0
   16.3791   34.6312   34.5043 N   0  0  0  0  0  0  0  0  0  0  0  0
   15.9001   35.1935   36.8091 N   0  0  0  0  0  0  0  0  0  0  0  0
    9.8125   44.9936   32.1501 H   0  0  0  0  0  0  0  0  0  0  0  0
   11.2738   46.1187   34.4986 H   0  0  0  0  0  0  0  0  0  0  0  0
   11.9222   45.7028   32.9838 H   0  0  0  0  0  0  0  0  0  0  0  0
    8.7930   45.7914   34.9652 H   0  0  0  0  0  0  0  0  0  0  0  0
    7.8364   44.9322   33.7100 H   0  0  0  0  0  0  0  0  0  0  0  0
    8.2213   48.7748   31.1638 H   0  0  0  0  0  0  0  0  0  0  0  0
    6.5670   48.7039   31.9027 H   0  0  0  0  0  0  0  0  0  0  0  0
    5.8994   45.9198   30.5706 H   0  0  0  0  0  0  0  0  0  0  0  0
    6.3109   49.0786   26.7728 H   0  0  0  0  0  0  0  0  0  0  0  0
    4.9635   45.3485   28.3771 H   0  0  0  0  0  0  0  0  0  0  0  0
    5.1911   46.9098   26.4725 H   0  0  0  0  0  0  0  0  0  0  0  0
    9.8308   40.7397   31.7558 H   0  0  0  0  0  0  0  0  0  0  0  0
   11.3997   41.5455   31.4747 H   0  0  0  0  0  0  0  0  0  0  0  0
   11.6989   39.5091   30.3489 H   0  0  0  0  0  0  0  0  0  0  0  0
   10.1130   38.2588   32.6663 H   0  0  0  0  0  0  0  0  0  0  0  0
   13.6800   37.4628   31.2265 H   0  0  0  0  0  0  0  0  0  0  0  0
    8.8953   38.6908   30.8890 H   0  0  0  0  0  0  0  0  0  0  0  0
   11.2830   36.3060   32.4929 H   0  0  0  0  0  0  0  0  0  0  0  0
   11.8859   36.9589   29.7593 H   0  0  0  0  0  0  0  0  0  0  0  0
   12.3360   38.3600   34.7441 H   0  0  0  0  0  0  0  0  0  0  0  0
   16.7572   34.1793   32.4621 H   0  0  0  0  0  0  0  0  0  0  0  0
   15.3528   35.7357   37.5140 H   0  0  0  0  0  0  0  0  0  0  0  0
   16.6362   34.5318   37.1416 H   0  0  0  0  0  0  0  0  0  0  0  0
  1  2  2  0
  1  3  1  0
  3  4  1  0
  4  5  1  0
  6  1  1  0
  7  6  1  0
  6  8  1  0
  8  9  1  0
  9 10  1  0
  9 11  2  0
 10 12  1  0
 12 13  1  0
 13 14  2  0
 15 13  1  0
 14 16  1  0
 14 17  1  0
 18 15  2  0
 16 19  1  0
 16 20  2  0
 17 21  2  0
 21 18  1  0
  4 22  2  0
  4 23  1  0
 24 23  1  0
 24 25  1  0
 25 26  1  0
 25 27  1  0
 26 28  1  0
 27 29  1  0
 27 30  1  0
 30 28  1  0
 28 31  1  0
 30 32  1  0
 33 31  1  0
 34 31  1  0
 35 33  2  0
 33 36  1  0
 37 34  2  0
 38 35  1  0
 36 39  2  0
 36 37  1  0
 40 38  2  0
 40 39  1  0
 39 41  1  0
  6 42  1  6
  7 43  1  0
  7 44  1  0
  8 45  1  0
  8 46  1  0
 12 47  1  0
 12 48  1  0
 15 49  1  0
 17 50  1  0
 18 51  1  0
 21 52  1  0
 24 53  1  0
 24 54  1  0
 25 55  1  0
 27 56  1  0
 28 57  1  0
 29 58  1  0
 30 59  1  0
 32 60  1  0
 34 61  1  0
 38 62  1  0
 41 63  1  0
 41 64  1  0
M  CHG  3   5  -1  16   1  19  -1
M  END
>  <EmbedRMS>  (114) 
0.08883639721903977

$$$$

     RDKit          3D

 64 67  0  0  0  0  0  0  0  0999 V2000
   10.2843   43.7742   33.8070 C   0  0  0  0  0  0  0  0  0  0  0  0
   11.4068   43.5903   34.3636 O   0  0  0  0  0  0  0  0  0  0  0  0
    9.3677   42.7312   33.6993 O   0  0  0  0  0  0  0  0  0  0  0  0
    9.8859   41.2343   34.2835 P   0  0  0  0  0  5  0  0  0  0  0  0
   10.3666   41.4695   35.8740 O   0  0  0  0  0  1  0  0  0  0  0  0
    9.9497   45.1158   33.2541 C   0  0  2  0  0  0  0  0  0  0  0  0
   11.0751   46.0285   33.4735 N   0  0  0  0  0  0  0  0  0  0  0  0
    8.6759   45.6523   33.9378 C   0  0  0  0  0  0  0  0  0  0  0  0
    8.1977   46.9129   33.2877 C   0  0  0  0  0  0  0  0  0  0  0  0
    7.6780   46.8596   31.9901 O   0  0  0  0  0  0  0  0  0  0  0  0
    8.3018   48.0121   33.8969 O   0  0  0  0  0  0  0  0  0  0  0  0
    7.3850   48.0206   31.2152 C   0  0  0  0  0  0  0  0  0  0  0  0
    8.6591   48.7421   30.8362 C   0  0  0  0  0  0  0  0  0  0  0  0
    8.8228   50.1431   30.9911 C   0  0  0  0  0  0  0  0  0  0  0  0
    9.6830   47.9976   30.2219 C   0  0  0  0  0  0  0  0  0  0  0  0
    7.8211   50.9563   31.6190 N   0  0  0  0  0  4  0  0  0  0  0  0
    9.9980   50.7551   30.5219 C   0  0  0  0  0  0  0  0  0  0  0  0
   10.8512   48.6199   29.7800 C   0  0  0  0  0  0  0  0  0  0  0  0
    7.4080   50.6687   32.8989 O   0  0  0  0  0  1  0  0  0  0  0  0
    7.5188   52.0610   31.1227 O   0  0  0  0  0  0  0  0  0  0  0  0
   11.0070   49.9970   29.9263 C   0  0  0  0  0  0  0  0  0  0  0  0
    8.8081   40.1915   34.2081 O   0  0  0  0  0  0  0  0  0  0  0  0
   11.2372   40.7910   33.3668 O   0  0  0  0  0  0  0  0  0  0  0  0
   10.9138   40.6861   31.9943 C   0  0  0  0  0  0  0  0  0  0  0  0
   11.5171   39.3797   31.4408 C   0  0  0  0  0  0  0  0  0  0  0  0
   12.7488   39.0886   32.0761 O   0  0  0  0  0  0  0  0  0  0  0  0
   10.6051   38.1877   31.6659 C   0  0  0  0  0  0  0  0  0  0  0  0
   12.9412   37.6828   32.0278 C   0  0  0  0  0  0  0  0  0  0  0  0
    9.6358   38.0930   30.6503 O   0  0  0  0  0  0  0  0  0  0  0  0
   11.5827   37.0179   31.6936 C   0  0  0  0  0  0  0  0  0  0  0  0
   13.4909   37.2176   33.3239 N   0  0  0  0  0  0  0  0  0  0  0  0
   11.6140   36.3180   30.4675 O   0  0  0  0  0  0  0  0  0  0  0  0
   14.4762   36.3270   33.5733 C   0  0  0  0  0  0  0  0  0  0  0  0
   13.1179   37.6316   34.5689 C   0  0  0  0  0  0  0  0  0  0  0  0
   15.2067   35.6140   32.6744 N   0  0  0  0  0  0  0  0  0  0  0  0
   14.6731   36.2272   34.9186 C   0  0  0  0  0  0  0  0  0  0  0  0
   13.8223   37.0456   35.5785 N   0  0  0  0  0  0  0  0  0  0  0  0
   16.1639   34.7595   33.1551 C   0  0  0  0  0  0  0  0  0  0  0  0
   15.6515   35.3491   35.4134 C   0  0  0  0  0  0  0  0  0  0  0  0
   16.3793   34.6310   34.5045 N   0  0  0  0  0  0  0  0  0  0  0  0
   15.9003   35.1933   36.8093 N   0  0  0  0  0  0  0  0  0  0  0  0
    9.7672   45.0032   32.1610 H   0  0  0  0  0  0  0  0  0  0  0  0
   10.8454   46.9560   33.0491 H   0  0  0  0  0  0  0  0  0  0  0  0
   11.8952   45.6786   32.9249 H   0  0  0  0  0  0  0  0  0  0  0  0
    7.8588   44.9025   33.8613 H   0  0  0  0  0  0  0  0  0  0  0  0
    8.8727   45.8317   35.0183 H   0  0  0  0  0  0  0  0  0  0  0  0
    6.6632   48.6572   31.7619 H   0  0  0  0  0  0  0  0  0  0  0  0
    6.8788   47.6985   30.2811 H   0  0  0  0  0  0  0  0  0  0  0  0
    9.5724   46.9295   30.0780 H   0  0  0  0  0  0  0  0  0  0  0  0
   10.1383   51.8230   30.6341 H   0  0  0  0  0  0  0  0  0  0  0  0
   11.6327   48.0340   29.3136 H   0  0  0  0  0  0  0  0  0  0  0  0
   11.9112   50.4787   29.5774 H   0  0  0  0  0  0  0  0  0  0  0  0
   11.3858   41.5433   31.4683 H   0  0  0  0  0  0  0  0  0  0  0  0
    9.8237   40.7211   31.7578 H   0  0  0  0  0  0  0  0  0  0  0  0
   11.6995   39.5063   30.3486 H   0  0  0  0  0  0  0  0  0  0  0  0
   10.1121   38.2723   32.6631 H   0  0  0  0  0  0  0  0  0  0  0  0
   13.6816   37.4631   31.2269 H   0  0  0  0  0  0  0  0  0  0  0  0
    9.0037   37.3828   30.9349 H   0  0  0  0  0  0  0  0  0  0  0  0
   11.2846   36.3041   32.4928 H   0  0  0  0  0  0  0  0  0  0  0  0
   11.8849   36.9590   29.7588 H   0  0  0  0  0  0  0  0  0  0  0  0
   12.3363   38.3599   34.7441 H   0  0  0  0  0  0  0  0  0  0  0  0
   16.7574   34.1790   32.4623 H   0  0  0  0  0  0  0  0  0  0  0  0
   16.6363   34.5316   37.1418 H   0  0  0  0  0  0  0  0  0  0  0  0
   15.3529   35.7355   37.5141 H   0  0  0  0  0  0  0  0  0  0  0  0
  1  2  2  0
  1  3  1  0
  3  4  1  0
  4  5  1  0
  6  1  1  0
  7  6  1  0
  6  8  1  0
  8  9  1  0
  9 10  1  0
  9 11  2  0
 10 12  1  0
 12 13  1  0
 13 14  2  0
 15 13  1  0
 14 16  1  0
 14 17  1  0
 18 15  2  0
 16 19  1  0
 16 20  2  0
 17 21  2  0
 21 18  1  0
  4 22  2  0
  4 23  1  0
 24 23  1  0
 24 25  1  0
 25 26  1  0
 25 27  1  0
 26 28  1  0
 27 29  1  0
 27 30  1  0
 30 28  1  0
 28 31  1  0
 30 32  1  0
 33 31  1  0
 34 31  1  0
 35 33  2  0
 33 36  1  0
 37 34  2  0
 38 35  1  0
 36 39  2  0
 36 37  1  0
 40 38  2  0
 40 39  1  0
 39 41  1  0
  6 42  1  6
  7 43  1  0
  7 44  1  0
  8 45  1  0
  8 46  1  0
 12 47  1  0
 12 48  1  0
 15 49  1  0
 17 50  1  0
 18 51  1  0
 21 52  1  0
 24 53  1  0
 24 54  1  0
 25 55  1  0
 27 56  1  0
 28 57  1  0
 29 58  1  0
 30 59  1  0
 32 60  1  0
 34 61  1  0
 38 62  1  0
 41 63  1  0
 41 64  1  0
M  CHG  3   5  -1  16   1  19  -1
M  END
>  <EmbedRMS>  (115) 
0.087908171974954

$$$$

     RDKit          3D

 64 67  0  0  0  0  0  0  0  0999 V2000
   10.2842   43.7745   33.8072 C   0  0  0  0  0  0  0  0  0  0  0  0
   11.4069   43.5908   34.3634 O   0  0  0  0  0  0  0  0  0  0  0  0
    9.3684   42.7308   33.6985 O   0  0  0  0  0  0  0  0  0  0  0  0
    9.8866   41.2339   34.2831 P   0  0  0  0  0  5  0  0  0  0  0  0
   10.3660   41.4696   35.8740 O   0  0  0  0  0  1  0  0  0  0  0  0
    9.9487   45.1163   33.2545 C   0  0  2  0  0  0  0  0  0  0  0  0
   11.0757   46.0267   33.4735 N   0  0  0  0  0  0  0  0  0  0  0  0
    8.6777   45.6553   33.9408 C   0  0  0  0  0  0  0  0  0  0  0  0
    8.1452   46.8697   33.2440 C   0  0  0  0  0  0  0  0  0  0  0  0
    7.4013   46.7156   32.0672 O   0  0  0  0  0  0  0  0  0  0  0  0
    8.3924   48.0173   33.7059 O   0  0  0  0  0  0  0  0  0  0  0  0
    6.8416   47.8114   31.3410 C   0  0  0  0  0  0  0  0  0  0  0  0
    7.7930   48.3930   30.3103 C   0  0  0  0  0  0  0  0  0  0  0  0
    7.3348   49.3424   29.3528 C   0  0  0  0  0  0  0  0  0  0  0  0
    9.1397   47.9737   30.2577 C   0  0  0  0  0  0  0  0  0  0  0  0
    5.9745   49.8153   29.3334 N   0  0  0  0  0  4  0  0  0  0  0  0
    8.2258   49.8191   28.3747 C   0  0  0  0  0  0  0  0  0  0  0  0
   10.0083   48.4732   29.2872 C   0  0  0  0  0  0  0  0  0  0  0  0
    5.3957   50.1890   28.1422 O   0  0  0  0  0  1  0  0  0  0  0  0
    5.3640   50.0535   30.3952 O   0  0  0  0  0  0  0  0  0  0  0  0
    9.5523   49.3917   28.3466 C   0  0  0  0  0  0  0  0  0  0  0  0
    8.8089   40.1912   34.2072 O   0  0  0  0  0  0  0  0  0  0  0  0
   11.2392   40.7900   33.3683 O   0  0  0  0  0  0  0  0  0  0  0  0
   10.9200   40.6895   31.9945 C   0  0  0  0  0  0  0  0  0  0  0  0
   11.5173   39.3800   31.4395 C   0  0  0  0  0  0  0  0  0  0  0  0
   12.7481   39.0860   32.0731 O   0  0  0  0  0  0  0  0  0  0  0  0
   10.6032   38.1891   31.6666 C   0  0  0  0  0  0  0  0  0  0  0  0
   12.9336   37.6795   32.0279 C   0  0  0  0  0  0  0  0  0  0  0  0
    9.6397   38.0777   30.6457 O   0  0  0  0  0  0  0  0  0  0  0  0
   11.5739   37.0154   31.7057 C   0  0  0  0  0  0  0  0  0  0  0  0
   13.4903   37.2177   33.3231 N   0  0  0  0  0  0  0  0  0  0  0  0
   11.6210   36.3376   30.4695 O   0  0  0  0  0  0  0  0  0  0  0  0
   14.4761   36.3273   33.5725 C   0  0  0  0  0  0  0  0  0  0  0  0
   13.1179   37.6316   34.5684 C   0  0  0  0  0  0  0  0  0  0  0  0
   15.2063   35.6138   32.6737 N   0  0  0  0  0  0  0  0  0  0  0  0
   14.6733   36.2277   34.9180 C   0  0  0  0  0  0  0  0  0  0  0  0
   13.8225   37.0459   35.5779 N   0  0  0  0  0  0  0  0  0  0  0  0
   16.1636   34.7594   33.1546 C   0  0  0  0  0  0  0  0  0  0  0  0
   15.6515   35.3494   35.4129 C   0  0  0  0  0  0  0  0  0  0  0  0
   16.3791   34.6311   34.5041 N   0  0  0  0  0  0  0  0  0  0  0  0
   15.9001   35.1935   36.8088 N   0  0  0  0  0  0  0  0  0  0  0  0
    9.7642   45.0019   32.1621 H   0  0  0  0  0  0  0  0  0  0  0  0
   10.8393   46.9629   33.0739 H   0  0  0  0  0  0  0  0  0  0  0  0
   11.8881   45.6872   32.9074 H   0  0  0  0  0  0  0  0  0  0  0  0
    8.8932   45.8931   35.0062 H   0  0  0  0  0  0  0  0  0  0  0  0
    7.8782   44.8828   33.9248 H   0  0  0  0  0  0  0  0  0  0  0  0
    6.5160   48.6021   32.0502 H   0  0  0  0  0  0  0  0  0  0  0  0
    5.9403   47.4357   30.8123 H   0  0  0  0  0  0  0  0  0  0  0  0
    9.5308   47.2469   30.9529 H   0  0  0  0  0  0  0  0  0  0  0  0
    7.8947   50.5389   27.6369 H   0  0  0  0  0  0  0  0  0  0  0  0
   11.0378   48.1396   29.2603 H   0  0  0  0  0  0  0  0  0  0  0  0
   10.2281   49.7738   27.5923 H   0  0  0  0  0  0  0  0  0  0  0  0
   11.4020   41.5436   31.4726 H   0  0  0  0  0  0  0  0  0  0  0  0
    9.8322   40.7400   31.7543 H   0  0  0  0  0  0  0  0  0  0  0  0
   11.6985   39.5040   30.3468 H   0  0  0  0  0  0  0  0  0  0  0  0
   10.1092   38.2633   32.6649 H   0  0  0  0  0  0  0  0  0  0  0  0
   13.6656   37.4538   31.2207 H   0  0  0  0  0  0  0  0  0  0  0  0
    8.8967   38.6902   30.8851 H   0  0  0  0  0  0  0  0  0  0  0  0
   11.2846   36.3060   32.5175 H   0  0  0  0  0  0  0  0  0  0  0  0
   10.8523   35.7094   30.4590 H   0  0  0  0  0  0  0  0  0  0  0  0
   12.3353   38.3588   34.7439 H   0  0  0  0  0  0  0  0  0  0  0  0
   16.7571   34.1788   32.4619 H   0  0  0  0  0  0  0  0  0  0  0  0
   16.6359   34.5316   37.1414 H   0  0  0  0  0  0  0  0  0  0  0  0
   15.3529   35.7359   37.5136 H   0  0  0  0  0  0  0  0  0  0  0  0
  1  2  2  0
  1  3  1  0
  3  4  1  0
  4  5  1  0
  6  1  1  0
  7  6  1  0
  6  8  1  0
  8  9  1  0
  9 10  1  0
  9 11  2  0
 10 12  1  0
 12 13  1  0
 13 14  2  0
 15 13  1  0
 14 16  1  0
 14 17  1  0
 18 15  2  0
 16 19  1  0
 16 20  2  0
 17 21  2  0
 21 18  1  0
  4 22  2  0
  4 23  1  0
 24 23  1  0
 24 25  1  0
 25 26  1  0
 25 27  1  0
 26 28  1  0
 27 29  1  0
 27 30  1  0
 30 28  1  0
 28 31  1  0
 30 32  1  0
 33 31  1  0
 34 31  1  0
 35 33  2  0
 33 36  1  0
 37 34  2  0
 38 35  1  0
 36 39  2  0
 36 37  1  0
 40 38  2  0
 40 39  1  0
 39 41  1  0
  6 42  1  6
  7 43  1  0
  7 44  1  0
  8 45  1  0
  8 46  1  0
 12 47  1  0
 12 48  1  0
 15 49  1  0
 17 50  1  0
 18 51  1  0
 21 52  1  0
 24 53  1  0
 24 54  1  0
 25 55  1  0
 27 56  1  0
 28 57  1  0
 29 58  1  0
 30 59  1  0
 32 60  1  0
 34 61  1  0
 38 62  1  0
 41 63  1  0
 41 64  1  0
M  CHG  3   5  -1  16   1  19  -1
M  END
>  <EmbedRMS>  (116) 
0.08950142384777454

$$$$

     RDKit          3D

 64 67  0  0  0  0  0  0  0  0999 V2000
   10.2863   43.7709   33.8098 C   0  0  0  0  0  0  0  0  0  0  0  0
   11.4100   43.5819   34.3617 O   0  0  0  0  0  0  0  0  0  0  0  0
    9.3671   42.7306   33.7015 O   0  0  0  0  0  0  0  0  0  0  0  0
    9.8851   41.2327   34.2837 P   0  0  0  0  0  5  0  0  0  0  0  0
   10.3652   41.4675   35.8745 O   0  0  0  0  0  1  0  0  0  0  0  0
    9.9605   45.1125   33.2475 C   0  0  2  0  0  0  0  0  0  0  0  0
   11.0657   46.0478   33.4746 N   0  0  0  0  0  0  0  0  0  0  0  0
    8.6647   45.6565   33.8723 C   0  0  0  0  0  0  0  0  0  0  0  0
    8.2792   46.9659   33.2571 C   0  0  0  0  0  0  0  0  0  0  0  0
    8.8092   48.1496   33.7770 O   0  0  0  0  0  0  0  0  0  0  0  0
    7.5179   46.9877   32.2515 O   0  0  0  0  0  0  0  0  0  0  0  0
    8.5296   49.4308   33.2189 C   0  0  0  0  0  0  0  0  0  0  0  0
    9.2960   50.5124   33.9453 C   0  0  0  0  0  0  0  0  0  0  0  0
    8.7999   51.8398   34.0386 C   0  0  0  0  0  0  0  0  0  0  0  0
   10.5478   50.2093   34.5176 C   0  0  0  0  0  0  0  0  0  0  0  0
    7.5836   52.2387   33.3826 N   0  0  0  0  0  4  0  0  0  0  0  0
    9.5247   52.7946   34.7749 C   0  0  0  0  0  0  0  0  0  0  0  0
   11.2601   51.1766   35.2276 C   0  0  0  0  0  0  0  0  0  0  0  0
    7.3171   51.8206   32.0991 O   0  0  0  0  0  1  0  0  0  0  0  0
    6.8562   53.1162   33.8921 O   0  0  0  0  0  0  0  0  0  0  0  0
   10.7440   52.4631   35.3665 C   0  0  0  0  0  0  0  0  0  0  0  0
    8.8075   40.1901   34.2072 O   0  0  0  0  0  0  0  0  0  0  0  0
   11.2381   40.7897   33.3686 O   0  0  0  0  0  0  0  0  0  0  0  0
   10.9194   40.6894   31.9948 C   0  0  0  0  0  0  0  0  0  0  0  0
   11.5171   39.3800   31.4396 C   0  0  0  0  0  0  0  0  0  0  0  0
   12.7479   39.0861   32.0733 O   0  0  0  0  0  0  0  0  0  0  0  0
   10.6031   38.1891   31.6666 C   0  0  0  0  0  0  0  0  0  0  0  0
   12.9335   37.6796   32.0279 C   0  0  0  0  0  0  0  0  0  0  0  0
    9.6397   38.0776   30.6456 O   0  0  0  0  0  0  0  0  0  0  0  0
   11.5739   37.0154   31.7057 C   0  0  0  0  0  0  0  0  0  0  0  0
   13.4903   37.2178   33.3231 N   0  0  0  0  0  0  0  0  0  0  0  0
   11.6211   36.3376   30.4694 O   0  0  0  0  0  0  0  0  0  0  0  0
   14.4761   36.3273   33.5725 C   0  0  0  0  0  0  0  0  0  0  0  0
   13.1179   37.6316   34.5684 C   0  0  0  0  0  0  0  0  0  0  0  0
   15.2063   35.6139   32.6737 N   0  0  0  0  0  0  0  0  0  0  0  0
   14.6733   36.2277   34.9179 C   0  0  0  0  0  0  0  0  0  0  0  0
   13.8225   37.0459   35.5779 N   0  0  0  0  0  0  0  0  0  0  0  0
   16.1636   34.7594   33.1546 C   0  0  0  0  0  0  0  0  0  0  0  0
   15.6515   35.3494   35.4129 C   0  0  0  0  0  0  0  0  0  0  0  0
   16.3791   34.6311   34.5041 N   0  0  0  0  0  0  0  0  0  0  0  0
   15.9001   35.1935   36.8088 N   0  0  0  0  0  0  0  0  0  0  0  0
    9.8088   44.9958   32.1514 H   0  0  0  0  0  0  0  0  0  0  0  0
   11.2742   46.1208   34.4981 H   0  0  0  0  0  0  0  0  0  0  0  0
   11.9226   45.7012   32.9840 H   0  0  0  0  0  0  0  0  0  0  0  0
    8.7978   45.7935   34.9678 H   0  0  0  0  0  0  0  0  0  0  0  0
    7.8356   44.9308   33.7200 H   0  0  0  0  0  0  0  0  0  0  0  0
    7.4365   49.6091   33.3043 H   0  0  0  0  0  0  0  0  0  0  0  0
    8.8222   49.4432   32.1469 H   0  0  0  0  0  0  0  0  0  0  0  0
   10.9738   49.2180   34.4254 H   0  0  0  0  0  0  0  0  0  0  0  0
    9.1570   53.8088   34.8674 H   0  0  0  0  0  0  0  0  0  0  0  0
   12.2143   50.9266   35.6734 H   0  0  0  0  0  0  0  0  0  0  0  0
   11.2975   53.2106   35.9201 H   0  0  0  0  0  0  0  0  0  0  0  0
   11.4014   41.5437   31.4731 H   0  0  0  0  0  0  0  0  0  0  0  0
    9.8316   40.7398   31.7544 H   0  0  0  0  0  0  0  0  0  0  0  0
   11.6983   39.5042   30.3470 H   0  0  0  0  0  0  0  0  0  0  0  0
   10.1090   38.2631   32.6649 H   0  0  0  0  0  0  0  0  0  0  0  0
   13.6656   37.4540   31.2207 H   0  0  0  0  0  0  0  0  0  0  0  0
    8.8965   38.6899   30.8851 H   0  0  0  0  0  0  0  0  0  0  0  0
   11.2846   36.3060   32.5175 H   0  0  0  0  0  0  0  0  0  0  0  0
   10.8524   35.7094   30.4589 H   0  0  0  0  0  0  0  0  0  0  0  0
   12.3353   38.3588   34.7439 H   0  0  0  0  0  0  0  0  0  0  0  0
   16.7570   34.1788   32.4619 H   0  0  0  0  0  0  0  0  0  0  0  0
   15.3529   35.7359   37.5136 H   0  0  0  0  0  0  0  0  0  0  0  0
   16.6360   34.5317   37.1413 H   0  0  0  0  0  0  0  0  0  0  0  0
  1  2  2  0
  1  3  1  0
  3  4  1  0
  4  5  1  0
  6  1  1  0
  7  6  1  0
  6  8  1  0
  8  9  1  0
  9 10  1  0
  9 11  2  0
 10 12  1  0
 12 13  1  0
 13 14  2  0
 15 13  1  0
 14 16  1  0
 14 17  1  0
 18 15  2  0
 16 19  1  0
 16 20  2  0
 17 21  2  0
 21 18  1  0
  4 22  2  0
  4 23  1  0
 24 23  1  0
 24 25  1  0
 25 26  1  0
 25 27  1  0
 26 28  1  0
 27 29  1  0
 27 30  1  0
 30 28  1  0
 28 31  1  0
 30 32  1  0
 33 31  1  0
 34 31  1  0
 35 33  2  0
 33 36  1  0
 37 34  2  0
 38 35  1  0
 36 39  2  0
 36 37  1  0
 40 38  2  0
 40 39  1  0
 39 41  1  0
  6 42  1  6
  7 43  1  0
  7 44  1  0
  8 45  1  0
  8 46  1  0
 12 47  1  0
 12 48  1  0
 15 49  1  0
 17 50  1  0
 18 51  1  0
 21 52  1  0
 24 53  1  0
 24 54  1  0
 25 55  1  0
 27 56  1  0
 28 57  1  0
 29 58  1  0
 30 59  1  0
 32 60  1  0
 34 61  1  0
 38 62  1  0
 41 63  1  0
 41 64  1  0
M  CHG  3   5  -1  16   1  19  -1
M  END
>  <EmbedRMS>  (117) 
0.08995984528686315

$$$$

     RDKit          3D

 64 67  0  0  0  0  0  0  0  0999 V2000
   10.2872   43.7716   33.8028 C   0  0  0  0  0  0  0  0  0  0  0  0
   11.4094   43.5882   34.3601 O   0  0  0  0  0  0  0  0  0  0  0  0
    9.3678   42.7310   33.6994 O   0  0  0  0  0  0  0  0  0  0  0  0
    9.8848   41.2343   34.2847 P   0  0  0  0  0  5  0  0  0  0  0  0
   10.3661   41.4687   35.8742 O   0  0  0  0  0  1  0  0  0  0  0  0
    9.9531   45.1151   33.2533 C   0  0  2  0  0  0  0  0  0  0  0  0
   11.0699   46.0347   33.4783 N   0  0  0  0  0  0  0  0  0  0  0  0
    8.6576   45.6664   33.8853 C   0  0  0  0  0  0  0  0  0  0  0  0
    8.8010   45.9317   35.3561 C   0  0  0  0  0  0  0  0  0  0  0  0
    8.9850   44.8594   36.2327 O   0  0  0  0  0  0  0  0  0  0  0  0
    8.7629   47.1162   35.7878 O   0  0  0  0  0  0  0  0  0  0  0  0
    9.1010   45.0211   37.6412 C   0  0  0  0  0  0  0  0  0  0  0  0
    9.4268   43.6906   38.2663 C   0  0  0  0  0  0  0  0  0  0  0  0
    8.4240   42.7378   38.5871 C   0  0  0  0  0  0  0  0  0  0  0  0
   10.7756   43.3826   38.5209 C   0  0  0  0  0  0  0  0  0  0  0  0
    7.0331   42.9741   38.3026 N   0  0  0  0  0  4  0  0  0  0  0  0
    8.8010   41.5295   39.2022 C   0  0  0  0  0  0  0  0  0  0  0  0
   11.1290   42.1716   39.1174 C   0  0  0  0  0  0  0  0  0  0  0  0
    6.6498   43.5616   37.1195 O   0  0  0  0  0  1  0  0  0  0  0  0
    6.1526   42.4909   39.0442 O   0  0  0  0  0  0  0  0  0  0  0  0
   10.1431   41.2497   39.4632 C   0  0  0  0  0  0  0  0  0  0  0  0
    8.8072   40.1916   34.2092 O   0  0  0  0  0  0  0  0  0  0  0  0
   11.2365   40.7899   33.3692 O   0  0  0  0  0  0  0  0  0  0  0  0
   10.9153   40.6897   31.9962 C   0  0  0  0  0  0  0  0  0  0  0  0
   11.5269   39.3898   31.4375 C   0  0  0  0  0  0  0  0  0  0  0  0
   12.7507   39.0917   32.0839 O   0  0  0  0  0  0  0  0  0  0  0  0
   10.6121   38.1916   31.6452 C   0  0  0  0  0  0  0  0  0  0  0  0
   12.9429   37.6853   32.0296 C   0  0  0  0  0  0  0  0  0  0  0  0
    9.6069   38.0858   30.6603 O   0  0  0  0  0  0  0  0  0  0  0  0
   11.5845   37.0186   31.6880 C   0  0  0  0  0  0  0  0  0  0  0  0
   13.4898   37.2164   33.3251 N   0  0  0  0  0  0  0  0  0  0  0  0
   11.6201   36.3063   30.4693 O   0  0  0  0  0  0  0  0  0  0  0  0
   14.4758   36.3264   33.5739 C   0  0  0  0  0  0  0  0  0  0  0  0
   13.1175   37.6309   34.5700 C   0  0  0  0  0  0  0  0  0  0  0  0
   15.2064   35.6139   32.6747 N   0  0  0  0  0  0  0  0  0  0  0  0
   14.6731   36.2268   34.9191 C   0  0  0  0  0  0  0  0  0  0  0  0
   13.8224   37.0451   35.5793 N   0  0  0  0  0  0  0  0  0  0  0  0
   16.1639   34.7596   33.1551 C   0  0  0  0  0  0  0  0  0  0  0  0
   15.6517   35.3489   35.4136 C   0  0  0  0  0  0  0  0  0  0  0  0
   16.3795   34.6310   34.5046 N   0  0  0  0  0  0  0  0  0  0  0  0
   15.9006   35.1931   36.8094 N   0  0  0  0  0  0  0  0  0  0  0  0
    9.7854   45.0047   32.1582 H   0  0  0  0  0  0  0  0  0  0  0  0
   10.8063   46.9735   33.0992 H   0  0  0  0  0  0  0  0  0  0  0  0
   11.8815   45.7166   32.8989 H   0  0  0  0  0  0  0  0  0  0  0  0
    8.3710   46.6062   33.3645 H   0  0  0  0  0  0  0  0  0  0  0  0
    7.8252   44.9464   33.7305 H   0  0  0  0  0  0  0  0  0  0  0  0
    8.1557   45.4286   38.0591 H   0  0  0  0  0  0  0  0  0  0  0  0
    9.9030   45.7587   37.8660 H   0  0  0  0  0  0  0  0  0  0  0  0
   11.5580   44.0854   38.2617 H   0  0  0  0  0  0  0  0  0  0  0  0
    8.0532   40.7906   39.4613 H   0  0  0  0  0  0  0  0  0  0  0  0
   12.1699   41.9485   39.3128 H   0  0  0  0  0  0  0  0  0  0  0  0
   10.4196   40.3116   39.9269 H   0  0  0  0  0  0  0  0  0  0  0  0
   11.3824   41.5526   31.4751 H   0  0  0  0  0  0  0  0  0  0  0  0
    9.8252   40.7190   31.7589 H   0  0  0  0  0  0  0  0  0  0  0  0
   11.7317   39.5339   30.3521 H   0  0  0  0  0  0  0  0  0  0  0  0
   10.1214   38.2682   32.6413 H   0  0  0  0  0  0  0  0  0  0  0  0
   13.6882   37.4708   31.2320 H   0  0  0  0  0  0  0  0  0  0  0  0
   10.0256   38.1751   29.7657 H   0  0  0  0  0  0  0  0  0  0  0  0
   11.2795   36.3124   32.4916 H   0  0  0  0  0  0  0  0  0  0  0  0
   11.9872   36.9100   29.7715 H   0  0  0  0  0  0  0  0  0  0  0  0
   12.3365   38.3597   34.7455 H   0  0  0  0  0  0  0  0  0  0  0  0
   16.7576   34.1795   32.4622 H   0  0  0  0  0  0  0  0  0  0  0  0
   16.6368   34.5316   37.1418 H   0  0  0  0  0  0  0  0  0  0  0  0
   15.3532   35.7352   37.5144 H   0  0  0  0  0  0  0  0  0  0  0  0
  1  2  2  0
  1  3  1  0
  3  4  1  0
  4  5  1  0
  6  1  1  0
  7  6  1  0
  6  8  1  0
  8  9  1  0
  9 10  1  0
  9 11  2  0
 10 12  1  0
 12 13  1  0
 13 14  2  0
 15 13  1  0
 14 16  1  0
 14 17  1  0
 18 15  2  0
 16 19  1  0
 16 20  2  0
 17 21  2  0
 21 18  1  0
  4 22  2  0
  4 23  1  0
 24 23  1  0
 24 25  1  0
 25 26  1  0
 25 27  1  0
 26 28  1  0
 27 29  1  0
 27 30  1  0
 30 28  1  0
 28 31  1  0
 30 32  1  0
 33 31  1  0
 34 31  1  0
 35 33  2  0
 33 36  1  0
 37 34  2  0
 38 35  1  0
 36 39  2  0
 36 37  1  0
 40 38  2  0
 40 39  1  0
 39 41  1  0
  6 42  1  6
  7 43  1  0
  7 44  1  0
  8 45  1  0
  8 46  1  0
 12 47  1  0
 12 48  1  0
 15 49  1  0
 17 50  1  0
 18 51  1  0
 21 52  1  0
 24 53  1  0
 24 54  1  0
 25 55  1  0
 27 56  1  0
 28 57  1  0
 29 58  1  0
 30 59  1  0
 32 60  1  0
 34 61  1  0
 38 62  1  0
 41 63  1  0
 41 64  1  0
M  CHG  3   5  -1  16   1  19  -1
M  END
>  <EmbedRMS>  (118) 
0.08710514947390662

$$$$

     RDKit          3D

 64 67  0  0  0  0  0  0  0  0999 V2000
   10.2862   43.7710   33.8100 C   0  0  0  0  0  0  0  0  0  0  0  0
   11.4101   43.5817   34.3616 O   0  0  0  0  0  0  0  0  0  0  0  0
    9.3666   42.7310   33.7022 O   0  0  0  0  0  0  0  0  0  0  0  0
    9.8842   41.2332   34.2847 P   0  0  0  0  0  5  0  0  0  0  0  0
   10.3652   41.4678   35.8751 O   0  0  0  0  0  1  0  0  0  0  0  0
    9.9609   45.1123   33.2469 C   0  0  2  0  0  0  0  0  0  0  0  0
   11.0653   46.0482   33.4749 N   0  0  0  0  0  0  0  0  0  0  0  0
    8.6650   45.6568   33.8702 C   0  0  0  0  0  0  0  0  0  0  0  0
    8.2712   46.9577   33.2429 C   0  0  0  0  0  0  0  0  0  0  0  0
    7.6339   46.9544   31.9969 O   0  0  0  0  0  0  0  0  0  0  0  0
    8.5436   48.0432   33.8251 O   0  0  0  0  0  0  0  0  0  0  0  0
    7.2177   48.1459   31.3299 C   0  0  0  0  0  0  0  0  0  0  0  0
    6.0415   48.7946   32.0292 C   0  0  0  0  0  0  0  0  0  0  0  0
    5.8626   50.2028   32.0380 C   0  0  0  0  0  0  0  0  0  0  0  0
    5.0860   47.9803   32.6679 C   0  0  0  0  0  0  0  0  0  0  0  0
    6.7386   51.0786   31.3082 N   0  0  0  0  0  4  0  0  0  0  0  0
    4.7890   50.7551   32.7598 C   0  0  0  0  0  0  0  0  0  0  0  0
    4.0167   48.5470   33.3628 C   0  0  0  0  0  0  0  0  0  0  0  0
    7.1163   50.7662   30.0226 O   0  0  0  0  0  1  0  0  0  0  0  0
    6.9977   52.2165   31.7517 O   0  0  0  0  0  0  0  0  0  0  0  0
    3.8755   49.9320   33.4192 C   0  0  0  0  0  0  0  0  0  0  0  0
    8.8068   40.1904   34.2082 O   0  0  0  0  0  0  0  0  0  0  0  0
   11.2363   40.7902   33.3689 O   0  0  0  0  0  0  0  0  0  0  0  0
   10.9152   40.6897   31.9959 C   0  0  0  0  0  0  0  0  0  0  0  0
   11.5269   39.3898   31.4374 C   0  0  0  0  0  0  0  0  0  0  0  0
   12.7506   39.0916   32.0839 O   0  0  0  0  0  0  0  0  0  0  0  0
   10.6121   38.1915   31.6451 C   0  0  0  0  0  0  0  0  0  0  0  0
   12.9429   37.6853   32.0295 C   0  0  0  0  0  0  0  0  0  0  0  0
    9.6069   38.0857   30.6602 O   0  0  0  0  0  0  0  0  0  0  0  0
   11.5845   37.0186   31.6879 C   0  0  0  0  0  0  0  0  0  0  0  0
   13.4899   37.2163   33.3250 N   0  0  0  0  0  0  0  0  0  0  0  0
   11.6202   36.3062   30.4693 O   0  0  0  0  0  0  0  0  0  0  0  0
   14.4759   36.3263   33.5738 C   0  0  0  0  0  0  0  0  0  0  0  0
   13.1176   37.6307   34.5699 C   0  0  0  0  0  0  0  0  0  0  0  0
   15.2065   35.6139   32.6746 N   0  0  0  0  0  0  0  0  0  0  0  0
   14.6731   36.2267   34.9191 C   0  0  0  0  0  0  0  0  0  0  0  0
   13.8224   37.0450   35.5792 N   0  0  0  0  0  0  0  0  0  0  0  0
   16.1640   34.7596   33.1551 C   0  0  0  0  0  0  0  0  0  0  0  0
   15.6517   35.3489   35.4136 C   0  0  0  0  0  0  0  0  0  0  0  0
   16.3795   34.6310   34.5045 N   0  0  0  0  0  0  0  0  0  0  0  0
   15.9006   35.1931   36.8094 N   0  0  0  0  0  0  0  0  0  0  0  0
    9.8109   44.9946   32.1506 H   0  0  0  0  0  0  0  0  0  0  0  0
   11.2746   46.1185   34.4983 H   0  0  0  0  0  0  0  0  0  0  0  0
   11.9220   45.7025   32.9831 H   0  0  0  0  0  0  0  0  0  0  0  0
    7.8364   44.9325   33.7131 H   0  0  0  0  0  0  0  0  0  0  0  0
    8.7945   45.7910   34.9671 H   0  0  0  0  0  0  0  0  0  0  0  0
    8.0868   48.8351   31.2743 H   0  0  0  0  0  0  0  0  0  0  0  0
    6.9139   47.8860   30.2946 H   0  0  0  0  0  0  0  0  0  0  0  0
    5.1744   46.9014   32.6421 H   0  0  0  0  0  0  0  0  0  0  0  0
    4.6430   51.8276   32.7880 H   0  0  0  0  0  0  0  0  0  0  0  0
    3.2977   47.9101   33.8617 H   0  0  0  0  0  0  0  0  0  0  0  0
    3.0468   50.3691   33.9613 H   0  0  0  0  0  0  0  0  0  0  0  0
    9.8251   40.7190   31.7585 H   0  0  0  0  0  0  0  0  0  0  0  0
   11.3823   41.5526   31.4747 H   0  0  0  0  0  0  0  0  0  0  0  0
   11.7318   39.5338   30.3520 H   0  0  0  0  0  0  0  0  0  0  0  0
   10.1214   38.2681   32.6412 H   0  0  0  0  0  0  0  0  0  0  0  0
   13.6882   37.4709   31.2319 H   0  0  0  0  0  0  0  0  0  0  0  0
   10.0256   38.1750   29.7656 H   0  0  0  0  0  0  0  0  0  0  0  0
   11.2796   36.3123   32.4915 H   0  0  0  0  0  0  0  0  0  0  0  0
   11.9872   36.9099   29.7714 H   0  0  0  0  0  0  0  0  0  0  0  0
   12.3365   38.3596   34.7453 H   0  0  0  0  0  0  0  0  0  0  0  0
   16.7576   34.1794   32.4622 H   0  0  0  0  0  0  0  0  0  0  0  0
   15.3532   35.7351   37.5143 H   0  0  0  0  0  0  0  0  0  0  0  0
   16.6368   34.5315   37.1418 H   0  0  0  0  0  0  0  0  0  0  0  0
  1  2  2  0
  1  3  1  0
  3  4  1  0
  4  5  1  0
  6  1  1  0
  7  6  1  0
  6  8  1  0
  8  9  1  0
  9 10  1  0
  9 11  2  0
 10 12  1  0
 12 13  1  0
 13 14  2  0
 15 13  1  0
 14 16  1  0
 14 17  1  0
 18 15  2  0
 16 19  1  0
 16 20  2  0
 17 21  2  0
 21 18  1  0
  4 22  2  0
  4 23  1  0
 24 23  1  0
 24 25  1  0
 25 26  1  0
 25 27  1  0
 26 28  1  0
 27 29  1  0
 27 30  1  0
 30 28  1  0
 28 31  1  0
 30 32  1  0
 33 31  1  0
 34 31  1  0
 35 33  2  0
 33 36  1  0
 37 34  2  0
 38 35  1  0
 36 39  2  0
 36 37  1  0
 40 38  2  0
 40 39  1  0
 39 41  1  0
  6 42  1  6
  7 43  1  0
  7 44  1  0
  8 45  1  0
  8 46  1  0
 12 47  1  0
 12 48  1  0
 15 49  1  0
 17 50  1  0
 18 51  1  0
 21 52  1  0
 24 53  1  0
 24 54  1  0
 25 55  1  0
 27 56  1  0
 28 57  1  0
 29 58  1  0
 30 59  1  0
 32 60  1  0
 34 61  1  0
 38 62  1  0
 41 63  1  0
 41 64  1  0
M  CHG  3   5  -1  16   1  19  -1
M  END
>  <EmbedRMS>  (119) 
0.0875225205885127

$$$$

     RDKit          3D

 64 67  0  0  0  0  0  0  0  0999 V2000
   10.2848   43.7726   33.8070 C   0  0  0  0  0  0  0  0  0  0  0  0
   11.4104   43.5874   34.3563 O   0  0  0  0  0  0  0  0  0  0  0  0
    9.3664   42.7314   33.7017 O   0  0  0  0  0  0  0  0  0  0  0  0
    9.8852   41.2342   34.2848 P   0  0  0  0  0  5  0  0  0  0  0  0
   10.3654   41.4697   35.8754 O   0  0  0  0  0  1  0  0  0  0  0  0
    9.9583   45.1107   33.2437 C   0  0  2  0  0  0  0  0  0  0  0  0
   11.0676   46.0367   33.4846 N   0  0  0  0  0  0  0  0  0  0  0  0
    8.6195   45.6578   33.7890 C   0  0  0  0  0  0  0  0  0  0  0  0
    8.6083   45.8019   35.2822 C   0  0  0  0  0  0  0  0  0  0  0  0
    9.0090   47.0098   35.8593 O   0  0  0  0  0  0  0  0  0  0  0  0
    8.2662   44.8260   36.0048 O   0  0  0  0  0  0  0  0  0  0  0  0
    9.0633   47.2092   37.2695 C   0  0  0  0  0  0  0  0  0  0  0  0
    9.5379   48.6060   37.6028 C   0  0  0  0  0  0  0  0  0  0  0  0
   10.1955   48.8934   38.8298 C   0  0  0  0  0  0  0  0  0  0  0  0
    9.3000   49.6569   36.6941 C   0  0  0  0  0  0  0  0  0  0  0  0
   10.3815   47.8919   39.8457 N   0  0  0  0  0  4  0  0  0  0  0  0
   10.6704   50.1953   39.0666 C   0  0  0  0  0  0  0  0  0  0  0  0
    9.7625   50.9467   36.9583 C   0  0  0  0  0  0  0  0  0  0  0  0
   11.4771   47.9516   40.6761 O   0  0  0  0  0  1  0  0  0  0  0  0
    9.4677   47.0851   40.1145 O   0  0  0  0  0  0  0  0  0  0  0  0
   10.4567   51.2127   38.1363 C   0  0  0  0  0  0  0  0  0  0  0  0
    8.8081   40.1910   34.2084 O   0  0  0  0  0  0  0  0  0  0  0  0
   11.2380   40.7910   33.3697 O   0  0  0  0  0  0  0  0  0  0  0  0
   10.9185   40.6906   31.9963 C   0  0  0  0  0  0  0  0  0  0  0  0
   11.5174   39.3824   31.4413 C   0  0  0  0  0  0  0  0  0  0  0  0
   12.7494   39.0893   32.0757 O   0  0  0  0  0  0  0  0  0  0  0  0
   10.6036   38.1899   31.6660 C   0  0  0  0  0  0  0  0  0  0  0  0
   12.9401   37.6834   32.0276 C   0  0  0  0  0  0  0  0  0  0  0  0
    9.6376   38.0785   30.6474 O   0  0  0  0  0  0  0  0  0  0  0  0
   11.5803   37.0204   31.6937 C   0  0  0  0  0  0  0  0  0  0  0  0
   13.4902   37.2177   33.3237 N   0  0  0  0  0  0  0  0  0  0  0  0
   11.6118   36.3193   30.4680 O   0  0  0  0  0  0  0  0  0  0  0  0
   14.4759   36.3271   33.5731 C   0  0  0  0  0  0  0  0  0  0  0  0
   13.1176   37.6317   34.5688 C   0  0  0  0  0  0  0  0  0  0  0  0
   15.2064   35.6142   32.6742 N   0  0  0  0  0  0  0  0  0  0  0  0
   14.6729   36.2274   34.9184 C   0  0  0  0  0  0  0  0  0  0  0  0
   13.8221   37.0457   35.5783 N   0  0  0  0  0  0  0  0  0  0  0  0
   16.1637   34.7597   33.1549 C   0  0  0  0  0  0  0  0  0  0  0  0
   15.6514   35.3493   35.4133 C   0  0  0  0  0  0  0  0  0  0  0  0
   16.3791   34.6312   34.5044 N   0  0  0  0  0  0  0  0  0  0  0  0
   15.9001   35.1935   36.8091 N   0  0  0  0  0  0  0  0  0  0  0  0
    9.8491   44.9836   32.1444 H   0  0  0  0  0  0  0  0  0  0  0  0
   11.1644   46.2260   34.5087 H   0  0  0  0  0  0  0  0  0  0  0  0
   10.8514   46.9477   33.0182 H   0  0  0  0  0  0  0  0  0  0  0  0
    7.7910   44.9827   33.4816 H   0  0  0  0  0  0  0  0  0  0  0  0
    8.4134   46.6486   33.3297 H   0  0  0  0  0  0  0  0  0  0  0  0
    8.0526   47.0580   37.7059 H   0  0  0  0  0  0  0  0  0  0  0  0
    9.7639   46.4586   37.6941 H   0  0  0  0  0  0  0  0  0  0  0  0
    8.7636   49.4812   35.7702 H   0  0  0  0  0  0  0  0  0  0  0  0
   11.1850   50.4309   39.9896 H   0  0  0  0  0  0  0  0  0  0  0  0
    9.5841   51.7416   36.2456 H   0  0  0  0  0  0  0  0  0  0  0  0
   10.8170   52.2135   38.3369 H   0  0  0  0  0  0  0  0  0  0  0  0
    9.8306   40.7396   31.7563 H   0  0  0  0  0  0  0  0  0  0  0  0
   11.3992   41.5455   31.4745 H   0  0  0  0  0  0  0  0  0  0  0  0
   11.6988   39.5092   30.3491 H   0  0  0  0  0  0  0  0  0  0  0  0
   10.1129   38.2588   32.6664 H   0  0  0  0  0  0  0  0  0  0  0  0
   13.6800   37.4629   31.2265 H   0  0  0  0  0  0  0  0  0  0  0  0
    8.8952   38.6907   30.8892 H   0  0  0  0  0  0  0  0  0  0  0  0
   11.2831   36.3060   32.4929 H   0  0  0  0  0  0  0  0  0  0  0  0
   11.8859   36.9589   29.7593 H   0  0  0  0  0  0  0  0  0  0  0  0
   12.3360   38.3600   34.7442 H   0  0  0  0  0  0  0  0  0  0  0  0
   16.7572   34.1793   32.4621 H   0  0  0  0  0  0  0  0  0  0  0  0
   15.3528   35.7356   37.5140 H   0  0  0  0  0  0  0  0  0  0  0  0
   16.6362   34.5318   37.1416 H   0  0  0  0  0  0  0  0  0  0  0  0
  1  2  2  0
  1  3  1  0
  3  4  1  0
  4  5  1  0
  6  1  1  0
  7  6  1  0
  6  8  1  0
  8  9  1  0
  9 10  1  0
  9 11  2  0
 10 12  1  0
 12 13  1  0
 13 14  2  0
 15 13  1  0
 14 16  1  0
 14 17  1  0
 18 15  2  0
 16 19  1  0
 16 20  2  0
 17 21  2  0
 21 18  1  0
  4 22  2  0
  4 23  1  0
 24 23  1  0
 24 25  1  0
 25 26  1  0
 25 27  1  0
 26 28  1  0
 27 29  1  0
 27 30  1  0
 30 28  1  0
 28 31  1  0
 30 32  1  0
 33 31  1  0
 34 31  1  0
 35 33  2  0
 33 36  1  0
 37 34  2  0
 38 35  1  0
 36 39  2  0
 36 37  1  0
 40 38  2  0
 40 39  1  0
 39 41  1  0
  6 42  1  6
  7 43  1  0
  7 44  1  0
  8 45  1  0
  8 46  1  0
 12 47  1  0
 12 48  1  0
 15 49  1  0
 17 50  1  0
 18 51  1  0
 21 52  1  0
 24 53  1  0
 24 54  1  0
 25 55  1  0
 27 56  1  0
 28 57  1  0
 29 58  1  0
 30 59  1  0
 32 60  1  0
 34 61  1  0
 38 62  1  0
 41 63  1  0
 41 64  1  0
M  CHG  3   5  -1  16   1  19  -1
M  END
>  <EmbedRMS>  (120) 
0.08819917704208635

$$$$

     RDKit          3D

 64 67  0  0  0  0  0  0  0  0999 V2000
   10.2849   43.7725   33.8067 C   0  0  0  0  0  0  0  0  0  0  0  0
   11.4105   43.5874   34.3563 O   0  0  0  0  0  0  0  0  0  0  0  0
    9.3666   42.7312   33.7012 O   0  0  0  0  0  0  0  0  0  0  0  0
    9.8855   41.2340   34.2841 P   0  0  0  0  0  5  0  0  0  0  0  0
   10.3658   41.4695   35.8746 O   0  0  0  0  0  1  0  0  0  0  0  0
    9.9581   45.1107   33.2441 C   0  0  2  0  0  0  0  0  0  0  0  0
   11.0676   46.0365   33.4846 N   0  0  0  0  0  0  0  0  0  0  0  0
    8.6201   45.6580   33.7910 C   0  0  0  0  0  0  0  0  0  0  0  0
    8.6125   45.8077   35.2836 C   0  0  0  0  0  0  0  0  0  0  0  0
    8.9633   47.0364   35.8547 O   0  0  0  0  0  0  0  0  0  0  0  0
    8.3140   44.8213   36.0113 O   0  0  0  0  0  0  0  0  0  0  0  0
    8.9948   47.2608   37.2640 C   0  0  0  0  0  0  0  0  0  0  0  0
    7.6016   47.2810   37.8582 C   0  0  0  0  0  0  0  0  0  0  0  0
    7.3461   46.8314   39.1814 C   0  0  0  0  0  0  0  0  0  0  0  0
    6.5330   47.7823   37.0893 C   0  0  0  0  0  0  0  0  0  0  0  0
    8.4051   46.4127   40.0589 N   0  0  0  0  0  4  0  0  0  0  0  0
    6.0232   46.8088   39.6561 C   0  0  0  0  0  0  0  0  0  0  0  0
    5.2294   47.7702   37.5870 C   0  0  0  0  0  0  0  0  0  0  0  0
    8.1736   45.4284   40.9920 O   0  0  0  0  0  1  0  0  0  0  0  0
    9.4627   47.0719   40.1304 O   0  0  0  0  0  0  0  0  0  0  0  0
    4.9733   47.2727   38.8629 C   0  0  0  0  0  0  0  0  0  0  0  0
    8.8081   40.1910   34.2080 O   0  0  0  0  0  0  0  0  0  0  0  0
   11.2381   40.7905   33.3684 O   0  0  0  0  0  0  0  0  0  0  0  0
   10.9185   40.6888   31.9948 C   0  0  0  0  0  0  0  0  0  0  0  0
   11.5179   39.3800   31.4399 C   0  0  0  0  0  0  0  0  0  0  0  0
   12.7483   39.0876   32.0751 O   0  0  0  0  0  0  0  0  0  0  0  0
   10.6053   38.1874   31.6657 C   0  0  0  0  0  0  0  0  0  0  0  0
   12.9360   37.6817   32.0288 C   0  0  0  0  0  0  0  0  0  0  0  0
    9.6423   38.0738   30.6445 O   0  0  0  0  0  0  0  0  0  0  0  0
   11.5765   37.0158   31.7046 C   0  0  0  0  0  0  0  0  0  0  0  0
   13.4908   37.2183   33.3237 N   0  0  0  0  0  0  0  0  0  0  0  0
   11.6103   36.3399   30.4680 O   0  0  0  0  0  0  0  0  0  0  0  0
   14.4762   36.3274   33.5728 C   0  0  0  0  0  0  0  0  0  0  0  0
   13.1181   37.6318   34.5689 C   0  0  0  0  0  0  0  0  0  0  0  0
   15.2063   35.6141   32.6739 N   0  0  0  0  0  0  0  0  0  0  0  0
   14.6733   36.2275   34.9182 C   0  0  0  0  0  0  0  0  0  0  0  0
   13.8226   37.0457   35.5783 N   0  0  0  0  0  0  0  0  0  0  0  0
   16.1636   34.7595   33.1546 C   0  0  0  0  0  0  0  0  0  0  0  0
   15.6515   35.3492   35.4130 C   0  0  0  0  0  0  0  0  0  0  0  0
   16.3791   34.6310   34.5041 N   0  0  0  0  0  0  0  0  0  0  0  0
   15.9002   35.1933   36.8089 N   0  0  0  0  0  0  0  0  0  0  0  0
    9.8478   44.9839   32.1448 H   0  0  0  0  0  0  0  0  0  0  0  0
   10.8535   46.9456   33.0135 H   0  0  0  0  0  0  0  0  0  0  0  0
   11.1605   46.2303   34.5083 H   0  0  0  0  0  0  0  0  0  0  0  0
    7.7915   44.9807   33.4892 H   0  0  0  0  0  0  0  0  0  0  0  0
    8.4112   46.6465   33.3281 H   0  0  0  0  0  0  0  0  0  0  0  0
    9.4758   48.2422   37.4571 H   0  0  0  0  0  0  0  0  0  0  0  0
    9.6219   46.4697   37.7269 H   0  0  0  0  0  0  0  0  0  0  0  0
    6.7042   48.1713   36.0933 H   0  0  0  0  0  0  0  0  0  0  0  0
    5.8071   46.4570   40.6570 H   0  0  0  0  0  0  0  0  0  0  0  0
    4.4154   48.1446   36.9797 H   0  0  0  0  0  0  0  0  0  0  0  0
    3.9607   47.2613   39.2452 H   0  0  0  0  0  0  0  0  0  0  0  0
    9.8304   40.7372   31.7554 H   0  0  0  0  0  0  0  0  0  0  0  0
   11.3986   41.5436   31.4723 H   0  0  0  0  0  0  0  0  0  0  0  0
   11.7001   39.5046   30.3474 H   0  0  0  0  0  0  0  0  0  0  0  0
   10.1103   38.2618   32.6637 H   0  0  0  0  0  0  0  0  0  0  0  0
   13.6696   37.4588   31.2223 H   0  0  0  0  0  0  0  0  0  0  0  0
    8.8999   38.6880   30.8814 H   0  0  0  0  0  0  0  0  0  0  0  0
   11.2690   36.3069   32.5091 H   0  0  0  0  0  0  0  0  0  0  0  0
   12.1427   35.5151   30.6153 H   0  0  0  0  0  0  0  0  0  0  0  0
   12.3359   38.3593   34.7445 H   0  0  0  0  0  0  0  0  0  0  0  0
   16.7569   34.1789   32.4618 H   0  0  0  0  0  0  0  0  0  0  0  0
   16.6362   34.5315   37.1414 H   0  0  0  0  0  0  0  0  0  0  0  0
   15.3530   35.7356   37.5138 H   0  0  0  0  0  0  0  0  0  0  0  0
  1  2  2  0
  1  3  1  0
  3  4  1  0
  4  5  1  0
  6  1  1  0
  7  6  1  0
  6  8  1  0
  8  9  1  0
  9 10  1  0
  9 11  2  0
 10 12  1  0
 12 13  1  0
 13 14  2  0
 15 13  1  0
 14 16  1  0
 14 17  1  0
 18 15  2  0
 16 19  1  0
 16 20  2  0
 17 21  2  0
 21 18  1  0
  4 22  2  0
  4 23  1  0
 24 23  1  0
 24 25  1  0
 25 26  1  0
 25 27  1  0
 26 28  1  0
 27 29  1  0
 27 30  1  0
 30 28  1  0
 28 31  1  0
 30 32  1  0
 33 31  1  0
 34 31  1  0
 35 33  2  0
 33 36  1  0
 37 34  2  0
 38 35  1  0
 36 39  2  0
 36 37  1  0
 40 38  2  0
 40 39  1  0
 39 41  1  0
  6 42  1  6
  7 43  1  0
  7 44  1  0
  8 45  1  0
  8 46  1  0
 12 47  1  0
 12 48  1  0
 15 49  1  0
 17 50  1  0
 18 51  1  0
 21 52  1  0
 24 53  1  0
 24 54  1  0
 25 55  1  0
 27 56  1  0
 28 57  1  0
 29 58  1  0
 30 59  1  0
 32 60  1  0
 34 61  1  0
 38 62  1  0
 41 63  1  0
 41 64  1  0
M  CHG  3   5  -1  16   1  19  -1
M  END
>  <EmbedRMS>  (121) 
0.08920210326539516

$$$$

     RDKit          3D

 64 67  0  0  0  0  0  0  0  0999 V2000
   10.2880   43.7704   33.7985 C   0  0  0  0  0  0  0  0  0  0  0  0
   11.4092   43.5873   34.3578 O   0  0  0  0  0  0  0  0  0  0  0  0
    9.3675   42.7305   33.6979 O   0  0  0  0  0  0  0  0  0  0  0  0
    9.8847   41.2345   34.2855 P   0  0  0  0  0  5  0  0  0  0  0  0
   10.3682   41.4708   35.8747 O   0  0  0  0  0  1  0  0  0  0  0  0
    9.9559   45.1145   33.2464 C   0  0  2  0  0  0  0  0  0  0  0  0
   11.0667   46.0366   33.4888 N   0  0  0  0  0  0  0  0  0  0  0  0
    8.6500   45.6615   33.8602 C   0  0  0  0  0  0  0  0  0  0  0  0
    8.7183   45.7528   35.3556 C   0  0  0  0  0  0  0  0  0  0  0  0
    8.4924   44.6022   36.1148 O   0  0  0  0  0  0  0  0  0  0  0  0
    9.0196   46.8447   35.9102 O   0  0  0  0  0  0  0  0  0  0  0  0
    8.6105   44.5670   37.5335 C   0  0  0  0  0  0  0  0  0  0  0  0
    8.3984   43.1606   38.0466 C   0  0  0  0  0  0  0  0  0  0  0  0
    9.0390   42.6942   39.2247 C   0  0  0  0  0  0  0  0  0  0  0  0
    7.5400   42.2899   37.3454 C   0  0  0  0  0  0  0  0  0  0  0  0
    9.8400   43.5648   40.0428 N   0  0  0  0  0  4  0  0  0  0  0  0
    8.8747   41.3514   39.6109 C   0  0  0  0  0  0  0  0  0  0  0  0
    7.3776   40.9660   37.7549 C   0  0  0  0  0  0  0  0  0  0  0  0
    9.4193   44.8469   40.3116 O   0  0  0  0  0  1  0  0  0  0  0  0
   10.8208   43.1104   40.6676 O   0  0  0  0  0  0  0  0  0  0  0  0
    8.0532   40.4943   38.8781 C   0  0  0  0  0  0  0  0  0  0  0  0
    8.8068   40.1919   34.2117 O   0  0  0  0  0  0  0  0  0  0  0  0
   11.2360   40.7892   33.3697 O   0  0  0  0  0  0  0  0  0  0  0  0
   10.9149   40.6895   31.9966 C   0  0  0  0  0  0  0  0  0  0  0  0
   11.5267   39.3899   31.4376 C   0  0  0  0  0  0  0  0  0  0  0  0
   12.7506   39.0917   32.0839 O   0  0  0  0  0  0  0  0  0  0  0  0
   10.6121   38.1915   31.6453 C   0  0  0  0  0  0  0  0  0  0  0  0
   12.9428   37.6853   32.0295 C   0  0  0  0  0  0  0  0  0  0  0  0
    9.6069   38.0857   30.6603 O   0  0  0  0  0  0  0  0  0  0  0  0
   11.5845   37.0186   31.6880 C   0  0  0  0  0  0  0  0  0  0  0  0
   13.4898   37.2164   33.3250 N   0  0  0  0  0  0  0  0  0  0  0  0
   11.6202   36.3063   30.4693 O   0  0  0  0  0  0  0  0  0  0  0  0
   14.4758   36.3264   33.5739 C   0  0  0  0  0  0  0  0  0  0  0  0
   13.1175   37.6308   34.5700 C   0  0  0  0  0  0  0  0  0  0  0  0
   15.2065   35.6139   32.6746 N   0  0  0  0  0  0  0  0  0  0  0  0
   14.6731   36.2268   34.9191 C   0  0  0  0  0  0  0  0  0  0  0  0
   13.8224   37.0450   35.5793 N   0  0  0  0  0  0  0  0  0  0  0  0
   16.1640   34.7596   33.1551 C   0  0  0  0  0  0  0  0  0  0  0  0
   15.6517   35.3489   35.4136 C   0  0  0  0  0  0  0  0  0  0  0  0
   16.3795   34.6310   34.5046 N   0  0  0  0  0  0  0  0  0  0  0  0
   15.9006   35.1931   36.8094 N   0  0  0  0  0  0  0  0  0  0  0  0
    9.8048   45.0080   32.1485 H   0  0  0  0  0  0  0  0  0  0  0  0
   10.8088   46.9748   33.1045 H   0  0  0  0  0  0  0  0  0  0  0  0
   11.8886   45.7201   32.9230 H   0  0  0  0  0  0  0  0  0  0  0  0
    7.8035   44.9972   33.5811 H   0  0  0  0  0  0  0  0  0  0  0  0
    8.4269   46.6640   33.4343 H   0  0  0  0  0  0  0  0  0  0  0  0
    7.8531   45.2406   37.9881 H   0  0  0  0  0  0  0  0  0  0  0  0
    9.6289   44.9214   37.8012 H   0  0  0  0  0  0  0  0  0  0  0  0
    7.0074   42.6266   36.4648 H   0  0  0  0  0  0  0  0  0  0  0  0
    9.3653   40.9733   40.4989 H   0  0  0  0  0  0  0  0  0  0  0  0
    6.7301   40.3028   37.1959 H   0  0  0  0  0  0  0  0  0  0  0  0
    7.9282   39.4658   39.1913 H   0  0  0  0  0  0  0  0  0  0  0  0
   11.3818   41.5527   31.4759 H   0  0  0  0  0  0  0  0  0  0  0  0
    9.8247   40.7185   31.7595 H   0  0  0  0  0  0  0  0  0  0  0  0
   11.7314   39.5342   30.3522 H   0  0  0  0  0  0  0  0  0  0  0  0
   10.1212   38.2680   32.6413 H   0  0  0  0  0  0  0  0  0  0  0  0
   13.6881   37.4709   31.2319 H   0  0  0  0  0  0  0  0  0  0  0  0
   10.0256   38.1751   29.7656 H   0  0  0  0  0  0  0  0  0  0  0  0
   11.2796   36.3123   32.4915 H   0  0  0  0  0  0  0  0  0  0  0  0
   11.9872   36.9100   29.7715 H   0  0  0  0  0  0  0  0  0  0  0  0
   12.3364   38.3596   34.7454 H   0  0  0  0  0  0  0  0  0  0  0  0
   16.7576   34.1795   32.4622 H   0  0  0  0  0  0  0  0  0  0  0  0
   16.6368   34.5316   37.1418 H   0  0  0  0  0  0  0  0  0  0  0  0
   15.3532   35.7351   37.5144 H   0  0  0  0  0  0  0  0  0  0  0  0
  1  2  2  0
  1  3  1  0
  3  4  1  0
  4  5  1  0
  6  1  1  0
  7  6  1  0
  6  8  1  0
  8  9  1  0
  9 10  1  0
  9 11  2  0
 10 12  1  0
 12 13  1  0
 13 14  2  0
 15 13  1  0
 14 16  1  0
 14 17  1  0
 18 15  2  0
 16 19  1  0
 16 20  2  0
 17 21  2  0
 21 18  1  0
  4 22  2  0
  4 23  1  0
 24 23  1  0
 24 25  1  0
 25 26  1  0
 25 27  1  0
 26 28  1  0
 27 29  1  0
 27 30  1  0
 30 28  1  0
 28 31  1  0
 30 32  1  0
 33 31  1  0
 34 31  1  0
 35 33  2  0
 33 36  1  0
 37 34  2  0
 38 35  1  0
 36 39  2  0
 36 37  1  0
 40 38  2  0
 40 39  1  0
 39 41  1  0
  6 42  1  6
  7 43  1  0
  7 44  1  0
  8 45  1  0
  8 46  1  0
 12 47  1  0
 12 48  1  0
 15 49  1  0
 17 50  1  0
 18 51  1  0
 21 52  1  0
 24 53  1  0
 24 54  1  0
 25 55  1  0
 27 56  1  0
 28 57  1  0
 29 58  1  0
 30 59  1  0
 32 60  1  0
 34 61  1  0
 38 62  1  0
 41 63  1  0
 41 64  1  0
M  CHG  3   5  -1  16   1  19  -1
M  END
>  <EmbedRMS>  (122) 
0.0869253788727649

$$$$

     RDKit          3D

 64 67  0  0  0  0  0  0  0  0999 V2000
   10.2862   43.7717   33.8040 C   0  0  0  0  0  0  0  0  0  0  0  0
   11.4114   43.5869   34.3543 O   0  0  0  0  0  0  0  0  0  0  0  0
    9.3669   42.7311   33.7001 O   0  0  0  0  0  0  0  0  0  0  0  0
    9.8847   41.2346   34.2852 P   0  0  0  0  0  5  0  0  0  0  0  0
   10.3651   41.4711   35.8756 O   0  0  0  0  0  1  0  0  0  0  0  0
    9.9565   45.1118   33.2470 C   0  0  2  0  0  0  0  0  0  0  0  0
   11.0672   46.0363   33.4857 N   0  0  0  0  0  0  0  0  0  0  0  0
    8.6229   45.6580   33.8061 C   0  0  0  0  0  0  0  0  0  0  0  0
    8.6158   45.7643   35.3028 C   0  0  0  0  0  0  0  0  0  0  0  0
    8.3965   44.6142   36.0715 O   0  0  0  0  0  0  0  0  0  0  0  0
    8.8250   46.8794   35.8540 O   0  0  0  0  0  0  0  0  0  0  0  0
    8.4265   44.6015   37.4990 C   0  0  0  0  0  0  0  0  0  0  0  0
    7.0729   44.8864   38.1236 C   0  0  0  0  0  0  0  0  0  0  0  0
    6.8473   44.6451   39.5085 C   0  0  0  0  0  0  0  0  0  0  0  0
    6.0058   45.3714   37.3370 C   0  0  0  0  0  0  0  0  0  0  0  0
    7.8872   44.1623   40.3800 N   0  0  0  0  0  4  0  0  0  0  0  0
    5.5664   44.8634   40.0461 C   0  0  0  0  0  0  0  0  0  0  0  0
    4.7480   45.5957   37.8975 C   0  0  0  0  0  0  0  0  0  0  0  0
    7.5646   43.3791   41.4646 O   0  0  0  0  0  1  0  0  0  0  0  0
    9.0583   44.5793   40.2707 O   0  0  0  0  0  0  0  0  0  0  0  0
    4.5275   45.3384   39.2473 C   0  0  0  0  0  0  0  0  0  0  0  0
    8.8073   40.1916   34.2096 O   0  0  0  0  0  0  0  0  0  0  0  0
   11.2365   40.7903   33.3696 O   0  0  0  0  0  0  0  0  0  0  0  0
   10.9152   40.6897   31.9965 C   0  0  0  0  0  0  0  0  0  0  0  0
   11.5268   39.3899   31.4376 C   0  0  0  0  0  0  0  0  0  0  0  0
   12.7507   39.0917   32.0840 O   0  0  0  0  0  0  0  0  0  0  0  0
   10.6121   38.1916   31.6453 C   0  0  0  0  0  0  0  0  0  0  0  0
   12.9429   37.6853   32.0295 C   0  0  0  0  0  0  0  0  0  0  0  0
    9.6070   38.0858   30.6603 O   0  0  0  0  0  0  0  0  0  0  0  0
   11.5845   37.0186   31.6880 C   0  0  0  0  0  0  0  0  0  0  0  0
   13.4899   37.2163   33.3250 N   0  0  0  0  0  0  0  0  0  0  0  0
   11.6202   36.3063   30.4693 O   0  0  0  0  0  0  0  0  0  0  0  0
   14.4759   36.3263   33.5738 C   0  0  0  0  0  0  0  0  0  0  0  0
   13.1175   37.6307   34.5699 C   0  0  0  0  0  0  0  0  0  0  0  0
   15.2065   35.6139   32.6746 N   0  0  0  0  0  0  0  0  0  0  0  0
   14.6731   36.2267   34.9191 C   0  0  0  0  0  0  0  0  0  0  0  0
   13.8224   37.0450   35.5792 N   0  0  0  0  0  0  0  0  0  0  0  0
   16.1640   34.7596   33.1551 C   0  0  0  0  0  0  0  0  0  0  0  0
   15.6517   35.3489   35.4136 C   0  0  0  0  0  0  0  0  0  0  0  0
   16.3795   34.6310   34.5046 N   0  0  0  0  0  0  0  0  0  0  0  0
   15.9006   35.1931   36.8094 N   0  0  0  0  0  0  0  0  0  0  0  0
    9.8394   44.9893   32.1479 H   0  0  0  0  0  0  0  0  0  0  0  0
   11.1526   46.2396   34.5083 H   0  0  0  0  0  0  0  0  0  0  0  0
   10.8579   46.9415   33.0052 H   0  0  0  0  0  0  0  0  0  0  0  0
    8.4169   46.6558   33.3608 H   0  0  0  0  0  0  0  0  0  0  0  0
    7.7915   44.9891   33.4948 H   0  0  0  0  0  0  0  0  0  0  0  0
    8.7522   43.5872   37.8126 H   0  0  0  0  0  0  0  0  0  0  0  0
    9.1793   45.3304   37.8686 H   0  0  0  0  0  0  0  0  0  0  0  0
    6.1269   45.5686   36.2817 H   0  0  0  0  0  0  0  0  0  0  0  0
    5.3748   44.6807   41.0959 H   0  0  0  0  0  0  0  0  0  0  0  0
    3.9390   45.9643   37.2798 H   0  0  0  0  0  0  0  0  0  0  0  0
    3.5491   45.5098   39.6775 H   0  0  0  0  0  0  0  0  0  0  0  0
   11.3821   41.5527   31.4753 H   0  0  0  0  0  0  0  0  0  0  0  0
    9.8251   40.7189   31.7594 H   0  0  0  0  0  0  0  0  0  0  0  0
   11.7316   39.5341   30.3523 H   0  0  0  0  0  0  0  0  0  0  0  0
   10.1213   38.2681   32.6413 H   0  0  0  0  0  0  0  0  0  0  0  0
   13.6882   37.4709   31.2319 H   0  0  0  0  0  0  0  0  0  0  0  0
   10.0257   38.1752   29.7656 H   0  0  0  0  0  0  0  0  0  0  0  0
   11.2796   36.3123   32.4915 H   0  0  0  0  0  0  0  0  0  0  0  0
   11.9872   36.9100   29.7715 H   0  0  0  0  0  0  0  0  0  0  0  0
   12.3365   38.3595   34.7454 H   0  0  0  0  0  0  0  0  0  0  0  0
   16.7576   34.1794   32.4622 H   0  0  0  0  0  0  0  0  0  0  0  0
   15.3532   35.7351   37.5143 H   0  0  0  0  0  0  0  0  0  0  0  0
   16.6368   34.5316   37.1418 H   0  0  0  0  0  0  0  0  0  0  0  0
  1  2  2  0
  1  3  1  0
  3  4  1  0
  4  5  1  0
  6  1  1  0
  7  6  1  0
  6  8  1  0
  8  9  1  0
  9 10  1  0
  9 11  2  0
 10 12  1  0
 12 13  1  0
 13 14  2  0
 15 13  1  0
 14 16  1  0
 14 17  1  0
 18 15  2  0
 16 19  1  0
 16 20  2  0
 17 21  2  0
 21 18  1  0
  4 22  2  0
  4 23  1  0
 24 23  1  0
 24 25  1  0
 25 26  1  0
 25 27  1  0
 26 28  1  0
 27 29  1  0
 27 30  1  0
 30 28  1  0
 28 31  1  0
 30 32  1  0
 33 31  1  0
 34 31  1  0
 35 33  2  0
 33 36  1  0
 37 34  2  0
 38 35  1  0
 36 39  2  0
 36 37  1  0
 40 38  2  0
 40 39  1  0
 39 41  1  0
  6 42  1  6
  7 43  1  0
  7 44  1  0
  8 45  1  0
  8 46  1  0
 12 47  1  0
 12 48  1  0
 15 49  1  0
 17 50  1  0
 18 51  1  0
 21 52  1  0
 24 53  1  0
 24 54  1  0
 25 55  1  0
 27 56  1  0
 28 57  1  0
 29 58  1  0
 30 59  1  0
 32 60  1  0
 34 61  1  0
 38 62  1  0
 41 63  1  0
 41 64  1  0
M  CHG  3   5  -1  16   1  19  -1
M  END
>  <EmbedRMS>  (123) 
0.08687511386386507

$$$$

     RDKit          3D

 64 67  0  0  0  0  0  0  0  0999 V2000
   10.2815   43.7749   33.8141 C   0  0  0  0  0  0  0  0  0  0  0  0
   11.4084   43.5879   34.3602 O   0  0  0  0  0  0  0  0  0  0  0  0
    9.3718   42.7291   33.6915 O   0  0  0  0  0  0  0  0  0  0  0  0
    9.8857   41.2339   34.2831 P   0  0  0  0  0  5  0  0  0  0  0  0
   10.3631   41.4724   35.8742 O   0  0  0  0  0  1  0  0  0  0  0  0
    9.9460   45.1189   33.2706 C   0  0  2  0  0  0  0  0  0  0  0  0
   11.0770   46.0310   33.4617 N   0  0  0  0  0  0  0  0  0  0  0  0
    8.6338   45.6837   33.8722 C   0  0  0  0  0  0  0  0  0  0  0  0
    8.6800   45.8684   35.3733 C   0  0  0  0  0  0  0  0  0  0  0  0
    8.0513   44.9956   36.2718 O   0  0  0  0  0  0  0  0  0  0  0  0
    9.3117   46.8505   35.8444 O   0  0  0  0  0  0  0  0  0  0  0  0
    7.0649   44.0314   35.9140 C   0  0  0  0  0  0  0  0  0  0  0  0
    6.6010   43.2985   37.1481 C   0  0  0  0  0  0  0  0  0  0  0  0
    6.0861   43.9798   38.2845 C   0  0  0  0  0  0  0  0  0  0  0  0
    6.7241   41.8964   37.1860 C   0  0  0  0  0  0  0  0  0  0  0  0
    5.9252   45.4105   38.3063 N   0  0  0  0  0  4  0  0  0  0  0  0
    5.7394   43.2368   39.4284 C   0  0  0  0  0  0  0  0  0  0  0  0
    6.3604   41.1791   38.3259 C   0  0  0  0  0  0  0  0  0  0  0  0
    5.4652   46.0842   37.1991 O   0  0  0  0  0  1  0  0  0  0  0  0
    6.0482   46.0369   39.3793 O   0  0  0  0  0  0  0  0  0  0  0  0
    5.8729   41.8481   39.4461 C   0  0  0  0  0  0  0  0  0  0  0  0
    8.8074   40.1919   34.2076 O   0  0  0  0  0  0  0  0  0  0  0  0
   11.2375   40.7879   33.3696 O   0  0  0  0  0  0  0  0  0  0  0  0
   10.9168   40.6893   31.9962 C   0  0  0  0  0  0  0  0  0  0  0  0
   11.5274   39.3895   31.4371 C   0  0  0  0  0  0  0  0  0  0  0  0
   12.7512   39.0912   32.0834 O   0  0  0  0  0  0  0  0  0  0  0  0
   10.6124   38.1916   31.6452 C   0  0  0  0  0  0  0  0  0  0  0  0
   12.9430   37.6849   32.0294 C   0  0  0  0  0  0  0  0  0  0  0  0
    9.6070   38.0859   30.6603 O   0  0  0  0  0  0  0  0  0  0  0  0
   11.5845   37.0184   31.6879 C   0  0  0  0  0  0  0  0  0  0  0  0
   13.4899   37.2162   33.3250 N   0  0  0  0  0  0  0  0  0  0  0  0
   11.6200   36.3061   30.4693 O   0  0  0  0  0  0  0  0  0  0  0  0
   14.4759   36.3263   33.5739 C   0  0  0  0  0  0  0  0  0  0  0  0
   13.1175   37.6307   34.5698 C   0  0  0  0  0  0  0  0  0  0  0  0
   15.2065   35.6138   32.6746 N   0  0  0  0  0  0  0  0  0  0  0  0
   14.6731   36.2267   34.9191 C   0  0  0  0  0  0  0  0  0  0  0  0
   13.8224   37.0450   35.5792 N   0  0  0  0  0  0  0  0  0  0  0  0
   16.1640   34.7595   33.1551 C   0  0  0  0  0  0  0  0  0  0  0  0
   15.6518   35.3489   35.4136 C   0  0  0  0  0  0  0  0  0  0  0  0
   16.3795   34.6310   34.5046 N   0  0  0  0  0  0  0  0  0  0  0  0
   15.9006   35.1931   36.8094 N   0  0  0  0  0  0  0  0  0  0  0  0
    9.7883   44.9965   32.1767 H   0  0  0  0  0  0  0  0  0  0  0  0
   10.8320   46.9646   33.0588 H   0  0  0  0  0  0  0  0  0  0  0  0
   11.2753   46.1662   34.4789 H   0  0  0  0  0  0  0  0  0  0  0  0
    7.7875   45.0296   33.5793 H   0  0  0  0  0  0  0  0  0  0  0  0
    8.4235   46.6705   33.4060 H   0  0  0  0  0  0  0  0  0  0  0  0
    6.2002   44.5257   35.4244 H   0  0  0  0  0  0  0  0  0  0  0  0
    7.4933   43.3196   35.1830 H   0  0  0  0  0  0  0  0  0  0  0  0
    7.1127   41.3529   36.3338 H   0  0  0  0  0  0  0  0  0  0  0  0
    5.3488   43.7349   40.3069 H   0  0  0  0  0  0  0  0  0  0  0  0
    6.4631   40.1017   38.3423 H   0  0  0  0  0  0  0  0  0  0  0  0
    5.5950   41.2893   40.3306 H   0  0  0  0  0  0  0  0  0  0  0  0
   11.3849   41.5523   31.4761 H   0  0  0  0  0  0  0  0  0  0  0  0
    9.8269   40.7194   31.7580 H   0  0  0  0  0  0  0  0  0  0  0  0
   11.7321   39.5337   30.3517 H   0  0  0  0  0  0  0  0  0  0  0  0
   10.1217   38.2683   32.6413 H   0  0  0  0  0  0  0  0  0  0  0  0
   13.6883   37.4700   31.2318 H   0  0  0  0  0  0  0  0  0  0  0  0
   10.0256   38.1751   29.7656 H   0  0  0  0  0  0  0  0  0  0  0  0
   11.2795   36.3122   32.4915 H   0  0  0  0  0  0  0  0  0  0  0  0
   11.9870   36.9098   29.7714 H   0  0  0  0  0  0  0  0  0  0  0  0
   12.3364   38.3595   34.7452 H   0  0  0  0  0  0  0  0  0  0  0  0
   16.7577   34.1794   32.4623 H   0  0  0  0  0  0  0  0  0  0  0  0
   15.3532   35.7351   37.5144 H   0  0  0  0  0  0  0  0  0  0  0  0
   16.6368   34.5316   37.1419 H   0  0  0  0  0  0  0  0  0  0  0  0
  1  2  2  0
  1  3  1  0
  3  4  1  0
  4  5  1  0
  6  1  1  0
  7  6  1  0
  6  8  1  0
  8  9  1  0
  9 10  1  0
  9 11  2  0
 10 12  1  0
 12 13  1  0
 13 14  2  0
 15 13  1  0
 14 16  1  0
 14 17  1  0
 18 15  2  0
 16 19  1  0
 16 20  2  0
 17 21  2  0
 21 18  1  0
  4 22  2  0
  4 23  1  0
 24 23  1  0
 24 25  1  0
 25 26  1  0
 25 27  1  0
 26 28  1  0
 27 29  1  0
 27 30  1  0
 30 28  1  0
 28 31  1  0
 30 32  1  0
 33 31  1  0
 34 31  1  0
 35 33  2  0
 33 36  1  0
 37 34  2  0
 38 35  1  0
 36 39  2  0
 36 37  1  0
 40 38  2  0
 40 39  1  0
 39 41  1  0
  6 42  1  6
  7 43  1  0
  7 44  1  0
  8 45  1  0
  8 46  1  0
 12 47  1  0
 12 48  1  0
 15 49  1  0
 17 50  1  0
 18 51  1  0
 21 52  1  0
 24 53  1  0
 24 54  1  0
 25 55  1  0
 27 56  1  0
 28 57  1  0
 29 58  1  0
 30 59  1  0
 32 60  1  0
 34 61  1  0
 38 62  1  0
 41 63  1  0
 41 64  1  0
M  CHG  3   5  -1  16   1  19  -1
M  END
>  <EmbedRMS>  (124) 
0.08764213761094466

$$$$

     RDKit          3D

 64 67  0  0  0  0  0  0  0  0999 V2000
   10.2812   43.7760   33.8097 C   0  0  0  0  0  0  0  0  0  0  0  0
   11.4072   43.5920   34.3591 O   0  0  0  0  0  0  0  0  0  0  0  0
    9.3700   42.7292   33.6976 O   0  0  0  0  0  0  0  0  0  0  0  0
    9.8871   41.2335   34.2831 P   0  0  0  0  0  5  0  0  0  0  0  0
   10.3671   41.4699   35.8736 O   0  0  0  0  0  1  0  0  0  0  0  0
    9.9497   45.1177   33.2500 C   0  0  2  0  0  0  0  0  0  0  0  0
   11.0753   46.0254   33.4788 N   0  0  0  0  0  0  0  0  0  0  0  0
    8.6579   45.6940   33.8722 C   0  0  0  0  0  0  0  0  0  0  0  0
    7.4397   44.9382   33.4379 C   0  0  0  0  0  0  0  0  0  0  0  0
    6.8454   44.0264   34.3194 O   0  0  0  0  0  0  0  0  0  0  0  0
    6.9761   45.1106   32.2774 O   0  0  0  0  0  0  0  0  0  0  0  0
    5.7464   43.1876   33.9614 C   0  0  0  0  0  0  0  0  0  0  0  0
    4.3966   43.8344   34.2137 C   0  0  0  0  0  0  0  0  0  0  0  0
    3.2016   43.0618   34.1661 C   0  0  0  0  0  0  0  0  0  0  0  0
    4.3046   45.2077   34.5276 C   0  0  0  0  0  0  0  0  0  0  0  0
    3.2105   41.6577   33.8456 N   0  0  0  0  0  4  0  0  0  0  0  0
    1.9718   43.6766   34.4611 C   0  0  0  0  0  0  0  0  0  0  0  0
    3.0703   45.7981   34.8006 C   0  0  0  0  0  0  0  0  0  0  0  0
    2.2505   40.8270   34.3767 O   0  0  0  0  0  1  0  0  0  0  0  0
    3.9683   41.2077   32.9622 O   0  0  0  0  0  0  0  0  0  0  0  0
    1.9074   45.0341   34.7713 C   0  0  0  0  0  0  0  0  0  0  0  0
    8.8081   40.1920   34.2081 O   0  0  0  0  0  0  0  0  0  0  0  0
   11.2381   40.7894   33.3661 O   0  0  0  0  0  0  0  0  0  0  0  0
   10.9147   40.6848   31.9933 C   0  0  0  0  0  0  0  0  0  0  0  0
   11.5167   39.3772   31.4392 C   0  0  0  0  0  0  0  0  0  0  0  0
   12.7473   39.0853   32.0736 O   0  0  0  0  0  0  0  0  0  0  0  0
   10.6047   38.1867   31.6669 C   0  0  0  0  0  0  0  0  0  0  0  0
   12.9345   37.6789   32.0281 C   0  0  0  0  0  0  0  0  0  0  0  0
    9.6378   38.0918   30.6489 O   0  0  0  0  0  0  0  0  0  0  0  0
   11.5760   37.0128   31.7056 C   0  0  0  0  0  0  0  0  0  0  0  0
   13.4909   37.2177   33.3233 N   0  0  0  0  0  0  0  0  0  0  0  0
   11.6233   36.3371   30.4684 O   0  0  0  0  0  0  0  0  0  0  0  0
   14.4765   36.3271   33.5727 C   0  0  0  0  0  0  0  0  0  0  0  0
   13.1181   37.6315   34.5685 C   0  0  0  0  0  0  0  0  0  0  0  0
   15.2066   35.6137   32.6739 N   0  0  0  0  0  0  0  0  0  0  0  0
   14.6735   36.2276   34.9182 C   0  0  0  0  0  0  0  0  0  0  0  0
   13.8227   37.0457   35.5781 N   0  0  0  0  0  0  0  0  0  0  0  0
   16.1638   34.7593   33.1548 C   0  0  0  0  0  0  0  0  0  0  0  0
   15.6517   35.3493   35.4131 C   0  0  0  0  0  0  0  0  0  0  0  0
   16.3792   34.6309   34.5043 N   0  0  0  0  0  0  0  0  0  0  0  0
   15.9002   35.1934   36.8090 N   0  0  0  0  0  0  0  0  0  0  0  0
    9.8098   45.0043   32.1517 H   0  0  0  0  0  0  0  0  0  0  0  0
   11.1200   46.2818   34.4930 H   0  0  0  0  0  0  0  0  0  0  0  0
   10.9067   46.9083   32.9436 H   0  0  0  0  0  0  0  0  0  0  0  0
    8.7285   45.6785   34.9820 H   0  0  0  0  0  0  0  0  0  0  0  0
    8.5369   46.7544   33.5611 H   0  0  0  0  0  0  0  0  0  0  0  0
    5.8336   42.8874   32.8951 H   0  0  0  0  0  0  0  0  0  0  0  0
    5.8173   42.2682   34.5801 H   0  0  0  0  0  0  0  0  0  0  0  0
    5.1827   45.8348   34.5792 H   0  0  0  0  0  0  0  0  0  0  0  0
    1.0532   43.1042   34.4343 H   0  0  0  0  0  0  0  0  0  0  0  0
    3.0171   46.8518   35.0428 H   0  0  0  0  0  0  0  0  0  0  0  0
    0.9522   45.4950   34.9878 H   0  0  0  0  0  0  0  0  0  0  0  0
    9.8245   40.7212   31.7569 H   0  0  0  0  0  0  0  0  0  0  0  0
   11.3876   41.5414   31.4673 H   0  0  0  0  0  0  0  0  0  0  0  0
   11.6986   39.5013   30.3465 H   0  0  0  0  0  0  0  0  0  0  0  0
   10.1096   38.2772   32.6629 H   0  0  0  0  0  0  0  0  0  0  0  0
   13.6672   37.4541   31.2212 H   0  0  0  0  0  0  0  0  0  0  0  0
    8.9775   37.4162   30.9537 H   0  0  0  0  0  0  0  0  0  0  0  0
   11.2860   36.3041   32.5177 H   0  0  0  0  0  0  0  0  0  0  0  0
   10.8687   35.6919   30.4657 H   0  0  0  0  0  0  0  0  0  0  0  0
   12.3355   38.3586   34.7439 H   0  0  0  0  0  0  0  0  0  0  0  0
   16.7572   34.1786   32.4621 H   0  0  0  0  0  0  0  0  0  0  0  0
   16.6361   34.5316   37.1416 H   0  0  0  0  0  0  0  0  0  0  0  0
   15.3530   35.7358   37.5138 H   0  0  0  0  0  0  0  0  0  0  0  0
  1  2  2  0
  1  3  1  0
  3  4  1  0
  4  5  1  0
  6  1  1  0
  7  6  1  0
  6  8  1  0
  8  9  1  0
  9 10  1  0
  9 11  2  0
 10 12  1  0
 12 13  1  0
 13 14  2  0
 15 13  1  0
 14 16  1  0
 14 17  1  0
 18 15  2  0
 16 19  1  0
 16 20  2  0
 17 21  2  0
 21 18  1  0
  4 22  2  0
  4 23  1  0
 24 23  1  0
 24 25  1  0
 25 26  1  0
 25 27  1  0
 26 28  1  0
 27 29  1  0
 27 30  1  0
 30 28  1  0
 28 31  1  0
 30 32  1  0
 33 31  1  0
 34 31  1  0
 35 33  2  0
 33 36  1  0
 37 34  2  0
 38 35  1  0
 36 39  2  0
 36 37  1  0
 40 38  2  0
 40 39  1  0
 39 41  1  0
  6 42  1  6
  7 43  1  0
  7 44  1  0
  8 45  1  0
  8 46  1  0
 12 47  1  0
 12 48  1  0
 15 49  1  0
 17 50  1  0
 18 51  1  0
 21 52  1  0
 24 53  1  0
 24 54  1  0
 25 55  1  0
 27 56  1  0
 28 57  1  0
 29 58  1  0
 30 59  1  0
 32 60  1  0
 34 61  1  0
 38 62  1  0
 41 63  1  0
 41 64  1  0
M  CHG  3   5  -1  16   1  19  -1
M  END
>  <EmbedRMS>  (125) 
0.0891426057873959

$$$$

     RDKit          3D

 64 67  0  0  0  0  0  0  0  0999 V2000
   10.2860   43.7720   33.8047 C   0  0  0  0  0  0  0  0  0  0  0  0
   11.4085   43.5885   34.3611 O   0  0  0  0  0  0  0  0  0  0  0  0
    9.3675   42.7309   33.6994 O   0  0  0  0  0  0  0  0  0  0  0  0
    9.8854   41.2342   34.2843 P   0  0  0  0  0  5  0  0  0  0  0  0
   10.3651   41.4701   35.8750 O   0  0  0  0  0  1  0  0  0  0  0  0
    9.9528   45.1149   33.2537 C   0  0  2  0  0  0  0  0  0  0  0  0
   11.0716   46.0330   33.4764 N   0  0  0  0  0  0  0  0  0  0  0  0
    8.6603   45.6656   33.8902 C   0  0  0  0  0  0  0  0  0  0  0  0
    8.7914   45.8547   35.3725 C   0  0  0  0  0  0  0  0  0  0  0  0
    9.4507   46.9840   35.8645 O   0  0  0  0  0  0  0  0  0  0  0  0
    8.3414   44.9777   36.1597 O   0  0  0  0  0  0  0  0  0  0  0  0
    9.6635   47.2075   37.2559 C   0  0  0  0  0  0  0  0  0  0  0  0
   10.4658   48.4686   37.4813 C   0  0  0  0  0  0  0  0  0  0  0  0
   10.3201   49.2403   38.6646 C   0  0  0  0  0  0  0  0  0  0  0  0
   11.4050   48.8748   36.5123 C   0  0  0  0  0  0  0  0  0  0  0  0
    9.4603   48.8202   39.7384 N   0  0  0  0  0  4  0  0  0  0  0  0
   11.0486   50.4363   38.7996 C   0  0  0  0  0  0  0  0  0  0  0  0
   12.1320   50.0548   36.6746 C   0  0  0  0  0  0  0  0  0  0  0  0
    9.4384   47.5032   40.1362 O   0  0  0  0  0  1  0  0  0  0  0  0
    8.8759   49.6702   40.4417 O   0  0  0  0  0  0  0  0  0  0  0  0
   11.9452   50.8403   37.8100 C   0  0  0  0  0  0  0  0  0  0  0  0
    8.8081   40.1911   34.2080 O   0  0  0  0  0  0  0  0  0  0  0  0
   11.2382   40.7905   33.3697 O   0  0  0  0  0  0  0  0  0  0  0  0
   10.9190   40.6905   31.9962 C   0  0  0  0  0  0  0  0  0  0  0  0
   11.5176   39.3824   31.4412 C   0  0  0  0  0  0  0  0  0  0  0  0
   12.7495   39.0892   32.0755 O   0  0  0  0  0  0  0  0  0  0  0  0
   10.6036   38.1899   31.6659 C   0  0  0  0  0  0  0  0  0  0  0  0
   12.9401   37.6833   32.0276 C   0  0  0  0  0  0  0  0  0  0  0  0
    9.6377   38.0785   30.6474 O   0  0  0  0  0  0  0  0  0  0  0  0
   11.5804   37.0203   31.6937 C   0  0  0  0  0  0  0  0  0  0  0  0
   13.4902   37.2177   33.3237 N   0  0  0  0  0  0  0  0  0  0  0  0
   11.6117   36.3193   30.4680 O   0  0  0  0  0  0  0  0  0  0  0  0
   14.4759   36.3271   33.5731 C   0  0  0  0  0  0  0  0  0  0  0  0
   13.1176   37.6317   34.5688 C   0  0  0  0  0  0  0  0  0  0  0  0
   15.2064   35.6141   32.6742 N   0  0  0  0  0  0  0  0  0  0  0  0
   14.6729   36.2274   34.9184 C   0  0  0  0  0  0  0  0  0  0  0  0
   13.8221   37.0458   35.5783 N   0  0  0  0  0  0  0  0  0  0  0  0
   16.1637   34.7597   33.1549 C   0  0  0  0  0  0  0  0  0  0  0  0
   15.6514   35.3493   35.4133 C   0  0  0  0  0  0  0  0  0  0  0  0
   16.3791   34.6312   34.5044 N   0  0  0  0  0  0  0  0  0  0  0  0
   15.9001   35.1935   36.8091 N   0  0  0  0  0  0  0  0  0  0  0  0
    9.7826   45.0057   32.1589 H   0  0  0  0  0  0  0  0  0  0  0  0
   10.8101   46.9724   33.0975 H   0  0  0  0  0  0  0  0  0  0  0  0
   11.8821   45.7132   32.8965 H   0  0  0  0  0  0  0  0  0  0  0  0
    8.4085   46.6435   33.4262 H   0  0  0  0  0  0  0  0  0  0  0  0
    7.8126   44.9787   33.6739 H   0  0  0  0  0  0  0  0  0  0  0  0
   10.2176   46.3482   37.6915 H   0  0  0  0  0  0  0  0  0  0  0  0
    8.6693   47.2904   37.7443 H   0  0  0  0  0  0  0  0  0  0  0  0
   11.5717   48.2841   35.6202 H   0  0  0  0  0  0  0  0  0  0  0  0
   10.9423   51.0444   39.6891 H   0  0  0  0  0  0  0  0  0  0  0  0
   12.8406   50.3619   35.9161 H   0  0  0  0  0  0  0  0  0  0  0  0
   12.5086   51.7565   37.9318 H   0  0  0  0  0  0  0  0  0  0  0  0
    9.8311   40.7397   31.7559 H   0  0  0  0  0  0  0  0  0  0  0  0
   11.4000   41.5454   31.4747 H   0  0  0  0  0  0  0  0  0  0  0  0
   11.6989   39.5091   30.3489 H   0  0  0  0  0  0  0  0  0  0  0  0
   10.1131   38.2589   32.6664 H   0  0  0  0  0  0  0  0  0  0  0  0
   13.6800   37.4627   31.2265 H   0  0  0  0  0  0  0  0  0  0  0  0
    8.8953   38.6909   30.8891 H   0  0  0  0  0  0  0  0  0  0  0  0
   11.2830   36.3060   32.4929 H   0  0  0  0  0  0  0  0  0  0  0  0
   11.8859   36.9589   29.7593 H   0  0  0  0  0  0  0  0  0  0  0  0
   12.3361   38.3601   34.7441 H   0  0  0  0  0  0  0  0  0  0  0  0
   16.7572   34.1793   32.4621 H   0  0  0  0  0  0  0  0  0  0  0  0
   16.6362   34.5318   37.1416 H   0  0  0  0  0  0  0  0  0  0  0  0
   15.3528   35.7357   37.5140 H   0  0  0  0  0  0  0  0  0  0  0  0
  1  2  2  0
  1  3  1  0
  3  4  1  0
  4  5  1  0
  6  1  1  0
  7  6  1  0
  6  8  1  0
  8  9  1  0
  9 10  1  0
  9 11  2  0
 10 12  1  0
 12 13  1  0
 13 14  2  0
 15 13  1  0
 14 16  1  0
 14 17  1  0
 18 15  2  0
 16 19  1  0
 16 20  2  0
 17 21  2  0
 21 18  1  0
  4 22  2  0
  4 23  1  0
 24 23  1  0
 24 25  1  0
 25 26  1  0
 25 27  1  0
 26 28  1  0
 27 29  1  0
 27 30  1  0
 30 28  1  0
 28 31  1  0
 30 32  1  0
 33 31  1  0
 34 31  1  0
 35 33  2  0
 33 36  1  0
 37 34  2  0
 38 35  1  0
 36 39  2  0
 36 37  1  0
 40 38  2  0
 40 39  1  0
 39 41  1  0
  6 42  1  6
  7 43  1  0
  7 44  1  0
  8 45  1  0
  8 46  1  0
 12 47  1  0
 12 48  1  0
 15 49  1  0
 17 50  1  0
 18 51  1  0
 21 52  1  0
 24 53  1  0
 24 54  1  0
 25 55  1  0
 27 56  1  0
 28 57  1  0
 29 58  1  0
 30 59  1  0
 32 60  1  0
 34 61  1  0
 38 62  1  0
 41 63  1  0
 41 64  1  0
M  CHG  3   5  -1  16   1  19  -1
M  END
>  <EmbedRMS>  (126) 
0.08832757244384469

$$$$

     RDKit          3D

 64 67  0  0  0  0  0  0  0  0999 V2000
   10.2811   43.7760   33.8095 C   0  0  0  0  0  0  0  0  0  0  0  0
   11.4071   43.5919   34.3590 O   0  0  0  0  0  0  0  0  0  0  0  0
    9.3697   42.7294   33.6979 O   0  0  0  0  0  0  0  0  0  0  0  0
    9.8866   41.2337   34.2840 P   0  0  0  0  0  5  0  0  0  0  0  0
   10.3664   41.4703   35.8745 O   0  0  0  0  0  1  0  0  0  0  0  0
    9.9501   45.1174   33.2494 C   0  0  2  0  0  0  0  0  0  0  0  0
   11.0754   46.0253   33.4793 N   0  0  0  0  0  0  0  0  0  0  0  0
    8.6577   45.6935   33.8703 C   0  0  0  0  0  0  0  0  0  0  0  0
    7.4383   44.9456   33.4255 C   0  0  0  0  0  0  0  0  0  0  0  0
    6.8401   44.0266   34.2948 O   0  0  0  0  0  0  0  0  0  0  0  0
    6.9805   45.1278   32.2642 O   0  0  0  0  0  0  0  0  0  0  0  0
    5.6965   43.2496   33.9455 C   0  0  0  0  0  0  0  0  0  0  0  0
    4.4661   44.1206   33.8374 C   0  0  0  0  0  0  0  0  0  0  0  0
    4.0652   44.9978   34.8810 C   0  0  0  0  0  0  0  0  0  0  0  0
    3.7192   44.0848   32.6455 C   0  0  0  0  0  0  0  0  0  0  0  0
    4.7754   45.0664   36.1312 N   0  0  0  0  0  4  0  0  0  0  0  0
    2.9510   45.8339   34.6818 C   0  0  0  0  0  0  0  0  0  0  0  0
    2.6082   44.9116   32.4754 C   0  0  0  0  0  0  0  0  0  0  0  0
    5.2478   43.9243   36.7346 O   0  0  0  0  0  1  0  0  0  0  0  0
    4.8309   46.1431   36.7607 O   0  0  0  0  0  0  0  0  0  0  0  0
    2.2278   45.7878   33.4894 C   0  0  0  0  0  0  0  0  0  0  0  0
    8.8081   40.1919   34.2085 O   0  0  0  0  0  0  0  0  0  0  0  0
   11.2378   40.7892   33.3680 O   0  0  0  0  0  0  0  0  0  0  0  0
   10.9156   40.6880   31.9951 C   0  0  0  0  0  0  0  0  0  0  0  0
   11.5261   39.3870   31.4363 C   0  0  0  0  0  0  0  0  0  0  0  0
   12.7492   39.0892   32.0816 O   0  0  0  0  0  0  0  0  0  0  0  0
   10.6123   38.1893   31.6461 C   0  0  0  0  0  0  0  0  0  0  0  0
   12.9373   37.6826   32.0300 C   0  0  0  0  0  0  0  0  0  0  0  0
    9.6149   38.0838   30.6539 O   0  0  0  0  0  0  0  0  0  0  0  0
   11.5793   37.0136   31.7013 C   0  0  0  0  0  0  0  0  0  0  0  0
   13.4906   37.2169   33.3242 N   0  0  0  0  0  0  0  0  0  0  0  0
   11.6216   36.3252   30.4725 O   0  0  0  0  0  0  0  0  0  0  0  0
   14.4763   36.3266   33.5731 C   0  0  0  0  0  0  0  0  0  0  0  0
   13.1181   37.6308   34.5694 C   0  0  0  0  0  0  0  0  0  0  0  0
   15.2065   35.6137   32.6740 N   0  0  0  0  0  0  0  0  0  0  0  0
   14.6736   36.2270   34.9185 C   0  0  0  0  0  0  0  0  0  0  0  0
   13.8229   37.0451   35.5787 N   0  0  0  0  0  0  0  0  0  0  0  0
   16.1639   34.7593   33.1547 C   0  0  0  0  0  0  0  0  0  0  0  0
   15.6519   35.3489   35.4132 C   0  0  0  0  0  0  0  0  0  0  0  0
   16.3794   34.6308   34.5042 N   0  0  0  0  0  0  0  0  0  0  0  0
   15.9006   35.1931   36.8090 N   0  0  0  0  0  0  0  0  0  0  0  0
    9.8116   45.0040   32.1509 H   0  0  0  0  0  0  0  0  0  0  0  0
   11.1184   46.2823   34.4934 H   0  0  0  0  0  0  0  0  0  0  0  0
   10.9077   46.9079   32.9432 H   0  0  0  0  0  0  0  0  0  0  0  0
    8.7234   45.6701   34.9804 H   0  0  0  0  0  0  0  0  0  0  0  0
    8.5414   46.7565   33.5664 H   0  0  0  0  0  0  0  0  0  0  0  0
    5.5301   42.4727   34.7192 H   0  0  0  0  0  0  0  0  0  0  0  0
    5.9020   42.7078   32.9960 H   0  0  0  0  0  0  0  0  0  0  0  0
    4.0034   43.4227   31.8368 H   0  0  0  0  0  0  0  0  0  0  0  0
    2.6306   46.5138   35.4611 H   0  0  0  0  0  0  0  0  0  0  0  0
    2.0449   44.8771   31.5518 H   0  0  0  0  0  0  0  0  0  0  0  0
    1.3681   46.4311   33.3531 H   0  0  0  0  0  0  0  0  0  0  0  0
    9.8253   40.7179   31.7584 H   0  0  0  0  0  0  0  0  0  0  0  0
   11.3828   41.5502   31.4730 H   0  0  0  0  0  0  0  0  0  0  0  0
   11.7289   39.5287   30.3502 H   0  0  0  0  0  0  0  0  0  0  0  0
   10.1140   38.2719   32.6380 H   0  0  0  0  0  0  0  0  0  0  0  0
   13.6725   37.4634   31.2239 H   0  0  0  0  0  0  0  0  0  0  0  0
   10.0534   38.1084   29.7639 H   0  0  0  0  0  0  0  0  0  0  0  0
   11.2645   36.3134   32.5107 H   0  0  0  0  0  0  0  0  0  0  0  0
   12.1548   35.5031   30.6315 H   0  0  0  0  0  0  0  0  0  0  0  0
   12.3361   38.3586   34.7450 H   0  0  0  0  0  0  0  0  0  0  0  0
   16.7573   34.1788   32.4619 H   0  0  0  0  0  0  0  0  0  0  0  0
   16.6366   34.5314   37.1415 H   0  0  0  0  0  0  0  0  0  0  0  0
   15.3532   35.7353   37.5139 H   0  0  0  0  0  0  0  0  0  0  0  0
  1  2  2  0
  1  3  1  0
  3  4  1  0
  4  5  1  0
  6  1  1  0
  7  6  1  0
  6  8  1  0
  8  9  1  0
  9 10  1  0
  9 11  2  0
 10 12  1  0
 12 13  1  0
 13 14  2  0
 15 13  1  0
 14 16  1  0
 14 17  1  0
 18 15  2  0
 16 19  1  0
 16 20  2  0
 17 21  2  0
 21 18  1  0
  4 22  2  0
  4 23  1  0
 24 23  1  0
 24 25  1  0
 25 26  1  0
 25 27  1  0
 26 28  1  0
 27 29  1  0
 27 30  1  0
 30 28  1  0
 28 31  1  0
 30 32  1  0
 33 31  1  0
 34 31  1  0
 35 33  2  0
 33 36  1  0
 37 34  2  0
 38 35  1  0
 36 39  2  0
 36 37  1  0
 40 38  2  0
 40 39  1  0
 39 41  1  0
  6 42  1  6
  7 43  1  0
  7 44  1  0
  8 45  1  0
  8 46  1  0
 12 47  1  0
 12 48  1  0
 15 49  1  0
 17 50  1  0
 18 51  1  0
 21 52  1  0
 24 53  1  0
 24 54  1  0
 25 55  1  0
 27 56  1  0
 28 57  1  0
 29 58  1  0
 30 59  1  0
 32 60  1  0
 34 61  1  0
 38 62  1  0
 41 63  1  0
 41 64  1  0
M  CHG  3   5  -1  16   1  19  -1
M  END
>  <EmbedRMS>  (127) 
0.08800631242083129

$$$$

     RDKit          3D

 64 67  0  0  0  0  0  0  0  0999 V2000
   10.2863   43.7709   33.8099 C   0  0  0  0  0  0  0  0  0  0  0  0
   11.4101   43.5817   34.3615 O   0  0  0  0  0  0  0  0  0  0  0  0
    9.3667   42.7309   33.7020 O   0  0  0  0  0  0  0  0  0  0  0  0
    9.8849   41.2328   34.2833 P   0  0  0  0  0  5  0  0  0  0  0  0
   10.3662   41.4672   35.8738 O   0  0  0  0  0  1  0  0  0  0  0  0
    9.9613   45.1118   33.2465 C   0  0  2  0  0  0  0  0  0  0  0  0
   11.0650   46.0484   33.4752 N   0  0  0  0  0  0  0  0  0  0  0  0
    8.6632   45.6559   33.8663 C   0  0  0  0  0  0  0  0  0  0  0  0
    8.2962   46.9766   33.2649 C   0  0  0  0  0  0  0  0  0  0  0  0
    7.7837   47.0201   31.9633 O   0  0  0  0  0  0  0  0  0  0  0  0
    8.4919   48.0389   33.9165 O   0  0  0  0  0  0  0  0  0  0  0  0
    7.5387   48.2397   31.2633 C   0  0  0  0  0  0  0  0  0  0  0  0
    8.8326   48.9361   30.8939 C   0  0  0  0  0  0  0  0  0  0  0  0
    8.9309   50.3520   30.8352 C   0  0  0  0  0  0  0  0  0  0  0  0
    9.9659   48.1596   30.5817 C   0  0  0  0  0  0  0  0  0  0  0  0
    7.7875   51.2013   31.0303 N   0  0  0  0  0  4  0  0  0  0  0  0
   10.1768   50.9434   30.5630 C   0  0  0  0  0  0  0  0  0  0  0  0
   11.1892   48.7664   30.2955 C   0  0  0  0  0  0  0  0  0  0  0  0
    7.9446   52.4418   31.6044 O   0  0  0  0  0  1  0  0  0  0  0  0
    6.6947   50.9199   30.4967 O   0  0  0  0  0  0  0  0  0  0  0  0
   11.2976   50.1553   30.2987 C   0  0  0  0  0  0  0  0  0  0  0  0
    8.8070   40.1904   34.2076 O   0  0  0  0  0  0  0  0  0  0  0  0
   11.2367   40.7902   33.3660 O   0  0  0  0  0  0  0  0  0  0  0  0
   10.9141   40.6850   31.9931 C   0  0  0  0  0  0  0  0  0  0  0  0
   11.5165   39.3773   31.4393 C   0  0  0  0  0  0  0  0  0  0  0  0
   12.7471   39.0855   32.0739 O   0  0  0  0  0  0  0  0  0  0  0  0
   10.6047   38.1867   31.6669 C   0  0  0  0  0  0  0  0  0  0  0  0
   12.9345   37.6791   32.0282 C   0  0  0  0  0  0  0  0  0  0  0  0
    9.6378   38.0917   30.6488 O   0  0  0  0  0  0  0  0  0  0  0  0
   11.5761   37.0129   31.7056 C   0  0  0  0  0  0  0  0  0  0  0  0
   13.4909   37.2177   33.3233 N   0  0  0  0  0  0  0  0  0  0  0  0
   11.6234   36.3371   30.4684 O   0  0  0  0  0  0  0  0  0  0  0  0
   14.4765   36.3272   33.5727 C   0  0  0  0  0  0  0  0  0  0  0  0
   13.1182   37.6316   34.5685 C   0  0  0  0  0  0  0  0  0  0  0  0
   15.2066   35.6137   32.6739 N   0  0  0  0  0  0  0  0  0  0  0  0
   14.6736   36.2276   34.9182 C   0  0  0  0  0  0  0  0  0  0  0  0
   13.8227   37.0457   35.5781 N   0  0  0  0  0  0  0  0  0  0  0  0
   16.1638   34.7592   33.1548 C   0  0  0  0  0  0  0  0  0  0  0  0
   15.6517   35.3493   35.4131 C   0  0  0  0  0  0  0  0  0  0  0  0
   16.3792   34.6309   34.5043 N   0  0  0  0  0  0  0  0  0  0  0  0
   15.9003   35.1934   36.8090 N   0  0  0  0  0  0  0  0  0  0  0  0
    9.8135   44.9931   32.1502 H   0  0  0  0  0  0  0  0  0  0  0  0
   11.9214   45.7054   32.9811 H   0  0  0  0  0  0  0  0  0  0  0  0
   11.2751   46.1176   34.4985 H   0  0  0  0  0  0  0  0  0  0  0  0
    8.7807   45.7617   34.9678 H   0  0  0  0  0  0  0  0  0  0  0  0
    7.8290   44.9454   33.6794 H   0  0  0  0  0  0  0  0  0  0  0  0
    6.9816   48.0098   30.3314 H   0  0  0  0  0  0  0  0  0  0  0  0
    6.8981   48.8841   31.9017 H   0  0  0  0  0  0  0  0  0  0  0  0
    9.9098   47.0785   30.5745 H   0  0  0  0  0  0  0  0  0  0  0  0
   10.2747   52.0211   30.5274 H   0  0  0  0  0  0  0  0  0  0  0  0
   12.0561   48.1571   30.0742 H   0  0  0  0  0  0  0  0  0  0  0  0
   12.2485   50.6236   30.0793 H   0  0  0  0  0  0  0  0  0  0  0  0
   11.3872   41.5416   31.4671 H   0  0  0  0  0  0  0  0  0  0  0  0
    9.8242   40.7213   31.7563 H   0  0  0  0  0  0  0  0  0  0  0  0
   11.6986   39.5013   30.3467 H   0  0  0  0  0  0  0  0  0  0  0  0
   10.1095   38.2771   32.6629 H   0  0  0  0  0  0  0  0  0  0  0  0
   13.6672   37.4545   31.2213 H   0  0  0  0  0  0  0  0  0  0  0  0
    8.9779   37.4157   30.9533 H   0  0  0  0  0  0  0  0  0  0  0  0
   11.2861   36.3041   32.5176 H   0  0  0  0  0  0  0  0  0  0  0  0
   10.8690   35.6918   30.4657 H   0  0  0  0  0  0  0  0  0  0  0  0
   12.3355   38.3587   34.7439 H   0  0  0  0  0  0  0  0  0  0  0  0
   16.7571   34.1785   32.4621 H   0  0  0  0  0  0  0  0  0  0  0  0
   16.6361   34.5315   37.1415 H   0  0  0  0  0  0  0  0  0  0  0  0
   15.3530   35.7358   37.5138 H   0  0  0  0  0  0  0  0  0  0  0  0
  1  2  2  0
  1  3  1  0
  3  4  1  0
  4  5  1  0
  6  1  1  0
  7  6  1  0
  6  8  1  0
  8  9  1  0
  9 10  1  0
  9 11  2  0
 10 12  1  0
 12 13  1  0
 13 14  2  0
 15 13  1  0
 14 16  1  0
 14 17  1  0
 18 15  2  0
 16 19  1  0
 16 20  2  0
 17 21  2  0
 21 18  1  0
  4 22  2  0
  4 23  1  0
 24 23  1  0
 24 25  1  0
 25 26  1  0
 25 27  1  0
 26 28  1  0
 27 29  1  0
 27 30  1  0
 30 28  1  0
 28 31  1  0
 30 32  1  0
 33 31  1  0
 34 31  1  0
 35 33  2  0
 33 36  1  0
 37 34  2  0
 38 35  1  0
 36 39  2  0
 36 37  1  0
 40 38  2  0
 40 39  1  0
 39 41  1  0
  6 42  1  6
  7 43  1  0
  7 44  1  0
  8 45  1  0
  8 46  1  0
 12 47  1  0
 12 48  1  0
 15 49  1  0
 17 50  1  0
 18 51  1  0
 21 52  1  0
 24 53  1  0
 24 54  1  0
 25 55  1  0
 27 56  1  0
 28 57  1  0
 29 58  1  0
 30 59  1  0
 32 60  1  0
 34 61  1  0
 38 62  1  0
 41 63  1  0
 41 64  1  0
M  CHG  3   5  -1  16   1  19  -1
M  END
>  <EmbedRMS>  (128) 
0.08950475696734683

$$$$

     RDKit          3D

 64 67  0  0  0  0  0  0  0  0999 V2000
   10.2869   43.7698   33.8108 C   0  0  0  0  0  0  0  0  0  0  0  0
   11.4132   43.5790   34.3563 O   0  0  0  0  0  0  0  0  0  0  0  0
    9.3659   42.7313   33.7050 O   0  0  0  0  0  0  0  0  0  0  0  0
    9.8842   41.2326   34.2841 P   0  0  0  0  0  5  0  0  0  0  0  0
   10.3656   41.4642   35.8746 O   0  0  0  0  0  1  0  0  0  0  0  0
    9.9672   45.1093   33.2396 C   0  0  2  0  0  0  0  0  0  0  0  0
   11.0595   46.0560   33.4803 N   0  0  0  0  0  0  0  0  0  0  0  0
    8.6334   45.6648   33.7750 C   0  0  0  0  0  0  0  0  0  0  0  0
    8.6632   45.9348   35.2503 C   0  0  0  0  0  0  0  0  0  0  0  0
    8.5613   44.8680   36.1504 O   0  0  0  0  0  0  0  0  0  0  0  0
    8.8065   47.1169   35.6649 O   0  0  0  0  0  0  0  0  0  0  0  0
    8.5959   45.0273   37.5684 C   0  0  0  0  0  0  0  0  0  0  0  0
    9.9582   45.4978   38.0269 C   0  0  0  0  0  0  0  0  0  0  0  0
   10.1378   46.6130   38.8867 C   0  0  0  0  0  0  0  0  0  0  0  0
   11.0796   44.7375   37.6507 C   0  0  0  0  0  0  0  0  0  0  0  0
    9.0351   47.4285   39.3096 N   0  0  0  0  0  4  0  0  0  0  0  0
   11.4294   46.9291   39.3429 C   0  0  0  0  0  0  0  0  0  0  0  0
   12.3566   45.0776   38.0983 C   0  0  0  0  0  0  0  0  0  0  0  0
    8.2250   48.0284   38.3740 O   0  0  0  0  0  1  0  0  0  0  0  0
    8.9606   47.8025   40.4982 O   0  0  0  0  0  0  0  0  0  0  0  0
   12.5311   46.1704   38.9452 C   0  0  0  0  0  0  0  0  0  0  0  0
    8.8063   40.1904   34.2075 O   0  0  0  0  0  0  0  0  0  0  0  0
   11.2359   40.7907   33.3662 O   0  0  0  0  0  0  0  0  0  0  0  0
   10.9128   40.6844   31.9934 C   0  0  0  0  0  0  0  0  0  0  0  0
   11.5172   39.3775   31.4397 C   0  0  0  0  0  0  0  0  0  0  0  0
   12.7475   39.0871   32.0759 O   0  0  0  0  0  0  0  0  0  0  0  0
   10.6068   38.1851   31.6657 C   0  0  0  0  0  0  0  0  0  0  0  0
   12.9371   37.6813   32.0291 C   0  0  0  0  0  0  0  0  0  0  0  0
    9.6403   38.0882   30.6475 O   0  0  0  0  0  0  0  0  0  0  0  0
   11.5789   37.0135   31.7045 C   0  0  0  0  0  0  0  0  0  0  0  0
   13.4915   37.2183   33.3239 N   0  0  0  0  0  0  0  0  0  0  0  0
   11.6126   36.3390   30.4674 O   0  0  0  0  0  0  0  0  0  0  0  0
   14.4765   36.3272   33.5730 C   0  0  0  0  0  0  0  0  0  0  0  0
   13.1184   37.6318   34.5691 C   0  0  0  0  0  0  0  0  0  0  0  0
   15.2066   35.6140   32.6740 N   0  0  0  0  0  0  0  0  0  0  0  0
   14.6735   36.2274   34.9184 C   0  0  0  0  0  0  0  0  0  0  0  0
   13.8227   37.0456   35.5785 N   0  0  0  0  0  0  0  0  0  0  0  0
   16.1637   34.7593   33.1548 C   0  0  0  0  0  0  0  0  0  0  0  0
   15.6517   35.3491   35.4132 C   0  0  0  0  0  0  0  0  0  0  0  0
   16.3792   34.6308   34.5043 N   0  0  0  0  0  0  0  0  0  0  0  0
   15.9004   35.1932   36.8090 N   0  0  0  0  0  0  0  0  0  0  0  0
    9.8552   44.9809   32.1404 H   0  0  0  0  0  0  0  0  0  0  0  0
   11.9152   45.7303   32.9733 H   0  0  0  0  0  0  0  0  0  0  0  0
   11.2865   46.1024   34.5012 H   0  0  0  0  0  0  0  0  0  0  0  0
    7.8126   44.9477   33.5571 H   0  0  0  0  0  0  0  0  0  0  0  0
    8.3924   46.6059   33.2337 H   0  0  0  0  0  0  0  0  0  0  0  0
    8.3962   44.0395   38.0344 H   0  0  0  0  0  0  0  0  0  0  0  0
    7.7713   45.6944   37.8844 H   0  0  0  0  0  0  0  0  0  0  0  0
   10.9616   43.8691   37.0170 H   0  0  0  0  0  0  0  0  0  0  0  0
   11.5834   47.7773   39.9982 H   0  0  0  0  0  0  0  0  0  0  0  0
   13.2108   44.4852   37.7967 H   0  0  0  0  0  0  0  0  0  0  0  0
   13.5216   46.4292   39.2965 H   0  0  0  0  0  0  0  0  0  0  0  0
   11.3842   41.5417   31.4670 H   0  0  0  0  0  0  0  0  0  0  0  0
    9.8227   40.7188   31.7574 H   0  0  0  0  0  0  0  0  0  0  0  0
   11.7004   39.5021   30.3474 H   0  0  0  0  0  0  0  0  0  0  0  0
   10.1096   38.2749   32.6606 H   0  0  0  0  0  0  0  0  0  0  0  0
   13.6713   37.4595   31.2228 H   0  0  0  0  0  0  0  0  0  0  0  0
    9.0033   37.3835   30.9350 H   0  0  0  0  0  0  0  0  0  0  0  0
   11.2706   36.3049   32.5088 H   0  0  0  0  0  0  0  0  0  0  0  0
   12.1445   35.5138   30.6141 H   0  0  0  0  0  0  0  0  0  0  0  0
   12.3362   38.3593   34.7445 H   0  0  0  0  0  0  0  0  0  0  0  0
   16.7570   34.1787   32.4620 H   0  0  0  0  0  0  0  0  0  0  0  0
   15.3532   35.7356   37.5139 H   0  0  0  0  0  0  0  0  0  0  0  0
   16.6362   34.5314   37.1415 H   0  0  0  0  0  0  0  0  0  0  0  0
  1  2  2  0
  1  3  1  0
  3  4  1  0
  4  5  1  0
  6  1  1  0
  7  6  1  0
  6  8  1  0
  8  9  1  0
  9 10  1  0
  9 11  2  0
 10 12  1  0
 12 13  1  0
 13 14  2  0
 15 13  1  0
 14 16  1  0
 14 17  1  0
 18 15  2  0
 16 19  1  0
 16 20  2  0
 17 21  2  0
 21 18  1  0
  4 22  2  0
  4 23  1  0
 24 23  1  0
 24 25  1  0
 25 26  1  0
 25 27  1  0
 26 28  1  0
 27 29  1  0
 27 30  1  0
 30 28  1  0
 28 31  1  0
 30 32  1  0
 33 31  1  0
 34 31  1  0
 35 33  2  0
 33 36  1  0
 37 34  2  0
 38 35  1  0
 36 39  2  0
 36 37  1  0
 40 38  2  0
 40 39  1  0
 39 41  1  0
  6 42  1  6
  7 43  1  0
  7 44  1  0
  8 45  1  0
  8 46  1  0
 12 47  1  0
 12 48  1  0
 15 49  1  0
 17 50  1  0
 18 51  1  0
 21 52  1  0
 24 53  1  0
 24 54  1  0
 25 55  1  0
 27 56  1  0
 28 57  1  0
 29 58  1  0
 30 59  1  0
 32 60  1  0
 34 61  1  0
 38 62  1  0
 41 63  1  0
 41 64  1  0
M  CHG  3   5  -1  16   1  19  -1
M  END
>  <EmbedRMS>  (129) 
0.08965143820288883

$$$$

     RDKit          3D

 64 67  0  0  0  0  0  0  0  0999 V2000
   10.2860   43.7719   33.8044 C   0  0  0  0  0  0  0  0  0  0  0  0
   11.4085   43.5883   34.3608 O   0  0  0  0  0  0  0  0  0  0  0  0
    9.3672   42.7311   33.6995 O   0  0  0  0  0  0  0  0  0  0  0  0
    9.8850   41.2344   34.2845 P   0  0  0  0  0  5  0  0  0  0  0  0
   10.3655   41.4704   35.8749 O   0  0  0  0  0  1  0  0  0  0  0  0
    9.9532   45.1148   33.2531 C   0  0  2  0  0  0  0  0  0  0  0  0
   11.0711   46.0330   33.4770 N   0  0  0  0  0  0  0  0  0  0  0  0
    8.6594   45.6661   33.8865 C   0  0  0  0  0  0  0  0  0  0  0  0
    8.7688   45.8165   35.3754 C   0  0  0  0  0  0  0  0  0  0  0  0
    9.4847   46.8917   35.9086 O   0  0  0  0  0  0  0  0  0  0  0  0
    8.2417   44.9561   36.1326 O   0  0  0  0  0  0  0  0  0  0  0  0
    9.6386   47.0930   37.3100 C   0  0  0  0  0  0  0  0  0  0  0  0
   10.5371   48.2787   37.5590 C   0  0  0  0  0  0  0  0  0  0  0  0
   11.8510   48.3594   37.0214 C   0  0  0  0  0  0  0  0  0  0  0  0
   10.0388   49.3542   38.3181 C   0  0  0  0  0  0  0  0  0  0  0  0
   12.4264   47.2887   36.2490 N   0  0  0  0  0  4  0  0  0  0  0  0
   12.6075   49.5264   37.2380 C   0  0  0  0  0  0  0  0  0  0  0  0
   10.8129   50.4950   38.5325 C   0  0  0  0  0  0  0  0  0  0  0  0
   12.2190   45.9756   36.6012 O   0  0  0  0  0  1  0  0  0  0  0  0
   13.2547   47.5424   35.3498 O   0  0  0  0  0  0  0  0  0  0  0  0
   12.0927   50.5828   37.9900 C   0  0  0  0  0  0  0  0  0  0  0  0
    8.8076   40.1914   34.2088 O   0  0  0  0  0  0  0  0  0  0  0  0
   11.2368   40.7904   33.3691 O   0  0  0  0  0  0  0  0  0  0  0  0
   10.9155   40.6898   31.9960 C   0  0  0  0  0  0  0  0  0  0  0  0
   11.5270   39.3898   31.4374 C   0  0  0  0  0  0  0  0  0  0  0  0
   12.7508   39.0916   32.0839 O   0  0  0  0  0  0  0  0  0  0  0  0
   10.6122   38.1916   31.6452 C   0  0  0  0  0  0  0  0  0  0  0  0
   12.9429   37.6853   32.0295 C   0  0  0  0  0  0  0  0  0  0  0  0
    9.6070   38.0858   30.6603 O   0  0  0  0  0  0  0  0  0  0  0  0
   11.5845   37.0186   31.6879 C   0  0  0  0  0  0  0  0  0  0  0  0
   13.4899   37.2163   33.3250 N   0  0  0  0  0  0  0  0  0  0  0  0
   11.6201   36.3063   30.4693 O   0  0  0  0  0  0  0  0  0  0  0  0
   14.4759   36.3263   33.5738 C   0  0  0  0  0  0  0  0  0  0  0  0
   13.1176   37.6307   34.5699 C   0  0  0  0  0  0  0  0  0  0  0  0
   15.2065   35.6139   32.6746 N   0  0  0  0  0  0  0  0  0  0  0  0
   14.6731   36.2267   34.9191 C   0  0  0  0  0  0  0  0  0  0  0  0
   13.8224   37.0450   35.5792 N   0  0  0  0  0  0  0  0  0  0  0  0
   16.1640   34.7596   33.1551 C   0  0  0  0  0  0  0  0  0  0  0  0
   15.6517   35.3489   35.4136 C   0  0  0  0  0  0  0  0  0  0  0  0
   16.3795   34.6310   34.5046 N   0  0  0  0  0  0  0  0  0  0  0  0
   15.9006   35.1931   36.8094 N   0  0  0  0  0  0  0  0  0  0  0  0
    9.7852   45.0059   32.1580 H   0  0  0  0  0  0  0  0  0  0  0  0
   11.8840   45.7120   32.9011 H   0  0  0  0  0  0  0  0  0  0  0  0
   10.8115   46.9719   33.0958 H   0  0  0  0  0  0  0  0  0  0  0  0
    7.8082   44.9935   33.6405 H   0  0  0  0  0  0  0  0  0  0  0  0
    8.4238   46.6576   33.4436 H   0  0  0  0  0  0  0  0  0  0  0  0
   10.0706   46.1893   37.7886 H   0  0  0  0  0  0  0  0  0  0  0  0
    8.6337   47.2514   37.7594 H   0  0  0  0  0  0  0  0  0  0  0  0
    9.0421   49.3166   38.7402 H   0  0  0  0  0  0  0  0  0  0  0  0
   13.6090   49.6124   36.8354 H   0  0  0  0  0  0  0  0  0  0  0  0
   10.4162   51.3158   39.1161 H   0  0  0  0  0  0  0  0  0  0  0  0
   12.6895   51.4707   38.1547 H   0  0  0  0  0  0  0  0  0  0  0  0
   11.3825   41.5526   31.4747 H   0  0  0  0  0  0  0  0  0  0  0  0
    9.8254   40.7191   31.7588 H   0  0  0  0  0  0  0  0  0  0  0  0
   11.7318   39.5338   30.3520 H   0  0  0  0  0  0  0  0  0  0  0  0
   10.1215   38.2682   32.6413 H   0  0  0  0  0  0  0  0  0  0  0  0
   13.6882   37.4708   31.2319 H   0  0  0  0  0  0  0  0  0  0  0  0
   10.0256   38.1751   29.7656 H   0  0  0  0  0  0  0  0  0  0  0  0
   11.2796   36.3123   32.4915 H   0  0  0  0  0  0  0  0  0  0  0  0
   11.9872   36.9099   29.7715 H   0  0  0  0  0  0  0  0  0  0  0  0
   12.3365   38.3595   34.7453 H   0  0  0  0  0  0  0  0  0  0  0  0
   16.7577   34.1794   32.4622 H   0  0  0  0  0  0  0  0  0  0  0  0
   16.6368   34.5316   37.1418 H   0  0  0  0  0  0  0  0  0  0  0  0
   15.3532   35.7351   37.5143 H   0  0  0  0  0  0  0  0  0  0  0  0
  1  2  2  0
  1  3  1  0
  3  4  1  0
  4  5  1  0
  6  1  1  0
  7  6  1  0
  6  8  1  0
  8  9  1  0
  9 10  1  0
  9 11  2  0
 10 12  1  0
 12 13  1  0
 13 14  2  0
 15 13  1  0
 14 16  1  0
 14 17  1  0
 18 15  2  0
 16 19  1  0
 16 20  2  0
 17 21  2  0
 21 18  1  0
  4 22  2  0
  4 23  1  0
 24 23  1  0
 24 25  1  0
 25 26  1  0
 25 27  1  0
 26 28  1  0
 27 29  1  0
 27 30  1  0
 30 28  1  0
 28 31  1  0
 30 32  1  0
 33 31  1  0
 34 31  1  0
 35 33  2  0
 33 36  1  0
 37 34  2  0
 38 35  1  0
 36 39  2  0
 36 37  1  0
 40 38  2  0
 40 39  1  0
 39 41  1  0
  6 42  1  6
  7 43  1  0
  7 44  1  0
  8 45  1  0
  8 46  1  0
 12 47  1  0
 12 48  1  0
 15 49  1  0
 17 50  1  0
 18 51  1  0
 21 52  1  0
 24 53  1  0
 24 54  1  0
 25 55  1  0
 27 56  1  0
 28 57  1  0
 29 58  1  0
 30 59  1  0
 32 60  1  0
 34 61  1  0
 38 62  1  0
 41 63  1  0
 41 64  1  0
M  CHG  3   5  -1  16   1  19  -1
M  END
>  <EmbedRMS>  (130) 
0.08696483777416228

$$$$

     RDKit          3D

 64 67  0  0  0  0  0  0  0  0999 V2000
   10.2828   43.7754   33.8079 C   0  0  0  0  0  0  0  0  0  0  0  0
   11.4085   43.5914   34.3579 O   0  0  0  0  0  0  0  0  0  0  0  0
    9.3666   42.7320   33.7015 O   0  0  0  0  0  0  0  0  0  0  0  0
    9.8863   41.2345   34.2833 P   0  0  0  0  0  5  0  0  0  0  0  0
   10.3676   41.4691   35.8737 O   0  0  0  0  0  1  0  0  0  0  0  0
    9.9541   45.1109   33.2427 C   0  0  2  0  0  0  0  0  0  0  0  0
   11.0722   46.0272   33.4848 N   0  0  0  0  0  0  0  0  0  0  0  0
    8.6382   45.6432   33.8496 C   0  0  0  0  0  0  0  0  0  0  0  0
    8.2472   46.9478   33.2302 C   0  0  0  0  0  0  0  0  0  0  0  0
    7.8460   46.9755   31.8907 O   0  0  0  0  0  0  0  0  0  0  0  0
    8.3163   48.0099   33.9066 O   0  0  0  0  0  0  0  0  0  0  0  0
    7.7160   48.1769   31.1344 C   0  0  0  0  0  0  0  0  0  0  0  0
    9.0779   48.7584   30.8353 C   0  0  0  0  0  0  0  0  0  0  0  0
    9.9228   48.2333   29.8185 C   0  0  0  0  0  0  0  0  0  0  0  0
    9.5199   49.8564   31.5960 C   0  0  0  0  0  0  0  0  0  0  0  0
    9.5413   47.1055   29.0085 N   0  0  0  0  0  4  0  0  0  0  0  0
   11.1656   48.8472   29.5796 C   0  0  0  0  0  0  0  0  0  0  0  0
   10.7635   50.4391   31.3516 C   0  0  0  0  0  0  0  0  0  0  0  0
   10.0242   46.9886   27.7252 O   0  0  0  0  0  1  0  0  0  0  0  0
    8.9149   46.1452   29.5006 O   0  0  0  0  0  0  0  0  0  0  0  0
   11.5831   49.9379   30.3431 C   0  0  0  0  0  0  0  0  0  0  0  0
    8.8086   40.1917   34.2082 O   0  0  0  0  0  0  0  0  0  0  0  0
   11.2376   40.7914   33.3656 O   0  0  0  0  0  0  0  0  0  0  0  0
   10.9141   40.6852   31.9929 C   0  0  0  0  0  0  0  0  0  0  0  0
   11.5165   39.3774   31.4394 C   0  0  0  0  0  0  0  0  0  0  0  0
   12.7471   39.0855   32.0740 O   0  0  0  0  0  0  0  0  0  0  0  0
   10.6047   38.1868   31.6670 C   0  0  0  0  0  0  0  0  0  0  0  0
   12.9345   37.6792   32.0282 C   0  0  0  0  0  0  0  0  0  0  0  0
    9.6378   38.0918   30.6488 O   0  0  0  0  0  0  0  0  0  0  0  0
   11.5761   37.0130   31.7057 C   0  0  0  0  0  0  0  0  0  0  0  0
   13.4909   37.2177   33.3233 N   0  0  0  0  0  0  0  0  0  0  0  0
   11.6234   36.3372   30.4684 O   0  0  0  0  0  0  0  0  0  0  0  0
   14.4765   36.3272   33.5727 C   0  0  0  0  0  0  0  0  0  0  0  0
   13.1182   37.6316   34.5685 C   0  0  0  0  0  0  0  0  0  0  0  0
   15.2066   35.6138   32.6739 N   0  0  0  0  0  0  0  0  0  0  0  0
   14.6736   36.2276   34.9182 C   0  0  0  0  0  0  0  0  0  0  0  0
   13.8227   37.0457   35.5781 N   0  0  0  0  0  0  0  0  0  0  0  0
   16.1638   34.7593   33.1547 C   0  0  0  0  0  0  0  0  0  0  0  0
   15.6517   35.3492   35.4131 C   0  0  0  0  0  0  0  0  0  0  0  0
   16.3792   34.6309   34.5043 N   0  0  0  0  0  0  0  0  0  0  0  0
   15.9002   35.1934   36.8090 N   0  0  0  0  0  0  0  0  0  0  0  0
    9.8248   44.9831   32.1447 H   0  0  0  0  0  0  0  0  0  0  0  0
   11.0699   46.3325   34.4860 H   0  0  0  0  0  0  0  0  0  0  0  0
   10.9465   46.8814   32.8943 H   0  0  0  0  0  0  0  0  0  0  0  0
    7.8179   44.9165   33.6638 H   0  0  0  0  0  0  0  0  0  0  0  0
    8.7432   45.7607   34.9511 H   0  0  0  0  0  0  0  0  0  0  0  0
    7.0747   48.9008   31.6839 H   0  0  0  0  0  0  0  0  0  0  0  0
    7.1892   47.9530   30.1834 H   0  0  0  0  0  0  0  0  0  0  0  0
    8.8965   50.2696   32.3793 H   0  0  0  0  0  0  0  0  0  0  0  0
   11.8244   48.4684   28.8086 H   0  0  0  0  0  0  0  0  0  0  0  0
   11.0903   51.2844   31.9433 H   0  0  0  0  0  0  0  0  0  0  0  0
   12.5464   50.3937   30.1535 H   0  0  0  0  0  0  0  0  0  0  0  0
   11.3866   41.5417   31.4661 H   0  0  0  0  0  0  0  0  0  0  0  0
    9.8240   40.7212   31.7568 H   0  0  0  0  0  0  0  0  0  0  0  0
   11.6987   39.5012   30.3467 H   0  0  0  0  0  0  0  0  0  0  0  0
   10.1095   38.2772   32.6629 H   0  0  0  0  0  0  0  0  0  0  0  0
   13.6672   37.4546   31.2213 H   0  0  0  0  0  0  0  0  0  0  0  0
    8.9779   37.4158   30.9533 H   0  0  0  0  0  0  0  0  0  0  0  0
   11.2860   36.3042   32.5177 H   0  0  0  0  0  0  0  0  0  0  0  0
   10.8690   35.6919   30.4657 H   0  0  0  0  0  0  0  0  0  0  0  0
   12.3356   38.3587   34.7440 H   0  0  0  0  0  0  0  0  0  0  0  0
   16.7571   34.1786   32.4621 H   0  0  0  0  0  0  0  0  0  0  0  0
   15.3530   35.7357   37.5138 H   0  0  0  0  0  0  0  0  0  0  0  0
   16.6361   34.5315   37.1415 H   0  0  0  0  0  0  0  0  0  0  0  0
  1  2  2  0
  1  3  1  0
  3  4  1  0
  4  5  1  0
  6  1  1  0
  7  6  1  0
  6  8  1  0
  8  9  1  0
  9 10  1  0
  9 11  2  0
 10 12  1  0
 12 13  1  0
 13 14  2  0
 15 13  1  0
 14 16  1  0
 14 17  1  0
 18 15  2  0
 16 19  1  0
 16 20  2  0
 17 21  2  0
 21 18  1  0
  4 22  2  0
  4 23  1  0
 24 23  1  0
 24 25  1  0
 25 26  1  0
 25 27  1  0
 26 28  1  0
 27 29  1  0
 27 30  1  0
 30 28  1  0
 28 31  1  0
 30 32  1  0
 33 31  1  0
 34 31  1  0
 35 33  2  0
 33 36  1  0
 37 34  2  0
 38 35  1  0
 36 39  2  0
 36 37  1  0
 40 38  2  0
 40 39  1  0
 39 41  1  0
  6 42  1  6
  7 43  1  0
  7 44  1  0
  8 45  1  0
  8 46  1  0
 12 47  1  0
 12 48  1  0
 15 49  1  0
 17 50  1  0
 18 51  1  0
 21 52  1  0
 24 53  1  0
 24 54  1  0
 25 55  1  0
 27 56  1  0
 28 57  1  0
 29 58  1  0
 30 59  1  0
 32 60  1  0
 34 61  1  0
 38 62  1  0
 41 63  1  0
 41 64  1  0
M  CHG  3   5  -1  16   1  19  -1
M  END
>  <EmbedRMS>  (131) 
0.08869812112827569

$$$$

     RDKit          3D

 64 67  0  0  0  0  0  0  0  0999 V2000
   10.2861   43.7711   33.8099 C   0  0  0  0  0  0  0  0  0  0  0  0
   11.4099   43.5819   34.3616 O   0  0  0  0  0  0  0  0  0  0  0  0
    9.3666   42.7310   33.7021 O   0  0  0  0  0  0  0  0  0  0  0  0
    9.8843   41.2332   34.2846 P   0  0  0  0  0  5  0  0  0  0  0  0
   10.3652   41.4679   35.8751 O   0  0  0  0  0  1  0  0  0  0  0  0
    9.9605   45.1126   33.2474 C   0  0  2  0  0  0  0  0  0  0  0  0
   11.0658   46.0478   33.4746 N   0  0  0  0  0  0  0  0  0  0  0  0
    8.6646   45.6569   33.8718 C   0  0  0  0  0  0  0  0  0  0  0  0
    8.2790   46.9658   33.2557 C   0  0  0  0  0  0  0  0  0  0  0  0
    8.8101   48.1498   33.7737 O   0  0  0  0  0  0  0  0  0  0  0  0
    7.5165   46.9868   32.2510 O   0  0  0  0  0  0  0  0  0  0  0  0
    8.5297   49.4307   33.2149 C   0  0  0  0  0  0  0  0  0  0  0  0
    9.2964   50.5149   33.9384 C   0  0  0  0  0  0  0  0  0  0  0  0
    8.8135   51.8500   34.0040 C   0  0  0  0  0  0  0  0  0  0  0  0
   10.5361   50.2077   34.5348 C   0  0  0  0  0  0  0  0  0  0  0  0
    7.6103   52.2574   33.3292 N   0  0  0  0  0  4  0  0  0  0  0  0
    9.5360   52.8069   34.7383 C   0  0  0  0  0  0  0  0  0  0  0  0
   11.2472   51.1781   35.2417 C   0  0  0  0  0  0  0  0  0  0  0  0
    6.8354   53.2651   33.8561 O   0  0  0  0  0  1  0  0  0  0  0  0
    7.3638   51.8516   32.1747 O   0  0  0  0  0  0  0  0  0  0  0  0
   10.7423   52.4716   35.3537 C   0  0  0  0  0  0  0  0  0  0  0  0
    8.8068   40.1904   34.2083 O   0  0  0  0  0  0  0  0  0  0  0  0
   11.2364   40.7902   33.3689 O   0  0  0  0  0  0  0  0  0  0  0  0
   10.9152   40.6897   31.9959 C   0  0  0  0  0  0  0  0  0  0  0  0
   11.5269   39.3898   31.4373 C   0  0  0  0  0  0  0  0  0  0  0  0
   12.7507   39.0916   32.0839 O   0  0  0  0  0  0  0  0  0  0  0  0
   10.6122   38.1915   31.6451 C   0  0  0  0  0  0  0  0  0  0  0  0
   12.9429   37.6853   32.0295 C   0  0  0  0  0  0  0  0  0  0  0  0
    9.6069   38.0857   30.6602 O   0  0  0  0  0  0  0  0  0  0  0  0
   11.5845   37.0186   31.6879 C   0  0  0  0  0  0  0  0  0  0  0  0
   13.4899   37.2163   33.3250 N   0  0  0  0  0  0  0  0  0  0  0  0
   11.6202   36.3062   30.4693 O   0  0  0  0  0  0  0  0  0  0  0  0
   14.4759   36.3263   33.5738 C   0  0  0  0  0  0  0  0  0  0  0  0
   13.1175   37.6307   34.5699 C   0  0  0  0  0  0  0  0  0  0  0  0
   15.2065   35.6139   32.6746 N   0  0  0  0  0  0  0  0  0  0  0  0
   14.6731   36.2267   34.9190 C   0  0  0  0  0  0  0  0  0  0  0  0
   13.8224   37.0450   35.5792 N   0  0  0  0  0  0  0  0  0  0  0  0
   16.1640   34.7596   33.1551 C   0  0  0  0  0  0  0  0  0  0  0  0
   15.6517   35.3489   35.4136 C   0  0  0  0  0  0  0  0  0  0  0  0
   16.3795   34.6310   34.5046 N   0  0  0  0  0  0  0  0  0  0  0  0
   15.9006   35.1931   36.8094 N   0  0  0  0  0  0  0  0  0  0  0  0
    9.8091   44.9958   32.1512 H   0  0  0  0  0  0  0  0  0  0  0  0
   11.9227   45.7011   32.9841 H   0  0  0  0  0  0  0  0  0  0  0  0
   11.2741   46.1209   34.4981 H   0  0  0  0  0  0  0  0  0  0  0  0
    8.7977   45.7946   34.9672 H   0  0  0  0  0  0  0  0  0  0  0  0
    7.8356   44.9309   33.7200 H   0  0  0  0  0  0  0  0  0  0  0  0
    7.4367   49.6091   33.3023 H   0  0  0  0  0  0  0  0  0  0  0  0
    8.8204   49.4418   32.1423 H   0  0  0  0  0  0  0  0  0  0  0  0
   10.9541   49.2113   34.4641 H   0  0  0  0  0  0  0  0  0  0  0  0
    9.1778   53.8259   34.8109 H   0  0  0  0  0  0  0  0  0  0  0  0
   12.1917   50.9251   35.7061 H   0  0  0  0  0  0  0  0  0  0  0  0
   11.2947   53.2213   35.9054 H   0  0  0  0  0  0  0  0  0  0  0  0
   11.3823   41.5526   31.4747 H   0  0  0  0  0  0  0  0  0  0  0  0
    9.8252   40.7190   31.7585 H   0  0  0  0  0  0  0  0  0  0  0  0
   11.7318   39.5338   30.3520 H   0  0  0  0  0  0  0  0  0  0  0  0
   10.1214   38.2681   32.6412 H   0  0  0  0  0  0  0  0  0  0  0  0
   13.6882   37.4709   31.2319 H   0  0  0  0  0  0  0  0  0  0  0  0
   10.0256   38.1750   29.7656 H   0  0  0  0  0  0  0  0  0  0  0  0
   11.2796   36.3123   32.4915 H   0  0  0  0  0  0  0  0  0  0  0  0
   11.9872   36.9099   29.7714 H   0  0  0  0  0  0  0  0  0  0  0  0
   12.3365   38.3595   34.7453 H   0  0  0  0  0  0  0  0  0  0  0  0
   16.7577   34.1794   32.4622 H   0  0  0  0  0  0  0  0  0  0  0  0
   16.6368   34.5315   37.1418 H   0  0  0  0  0  0  0  0  0  0  0  0
   15.3532   35.7351   37.5143 H   0  0  0  0  0  0  0  0  0  0  0  0
  1  2  2  0
  1  3  1  0
  3  4  1  0
  4  5  1  0
  6  1  1  0
  7  6  1  0
  6  8  1  0
  8  9  1  0
  9 10  1  0
  9 11  2  0
 10 12  1  0
 12 13  1  0
 13 14  2  0
 15 13  1  0
 14 16  1  0
 14 17  1  0
 18 15  2  0
 16 19  1  0
 16 20  2  0
 17 21  2  0
 21 18  1  0
  4 22  2  0
  4 23  1  0
 24 23  1  0
 24 25  1  0
 25 26  1  0
 25 27  1  0
 26 28  1  0
 27 29  1  0
 27 30  1  0
 30 28  1  0
 28 31  1  0
 30 32  1  0
 33 31  1  0
 34 31  1  0
 35 33  2  0
 33 36  1  0
 37 34  2  0
 38 35  1  0
 36 39  2  0
 36 37  1  0
 40 38  2  0
 40 39  1  0
 39 41  1  0
  6 42  1  6
  7 43  1  0
  7 44  1  0
  8 45  1  0
  8 46  1  0
 12 47  1  0
 12 48  1  0
 15 49  1  0
 17 50  1  0
 18 51  1  0
 21 52  1  0
 24 53  1  0
 24 54  1  0
 25 55  1  0
 27 56  1  0
 28 57  1  0
 29 58  1  0
 30 59  1  0
 32 60  1  0
 34 61  1  0
 38 62  1  0
 41 63  1  0
 41 64  1  0
M  CHG  3   5  -1  16   1  19  -1
M  END
>  <EmbedRMS>  (132) 
0.08751928158540094

$$$$

     RDKit          3D

 64 67  0  0  0  0  0  0  0  0999 V2000
   10.2820   43.7752   33.8090 C   0  0  0  0  0  0  0  0  0  0  0  0
   11.4049   43.5916   34.3650 O   0  0  0  0  0  0  0  0  0  0  0  0
    9.3696   42.7292   33.6971 O   0  0  0  0  0  0  0  0  0  0  0  0
    9.8864   41.2336   34.2840 P   0  0  0  0  0  5  0  0  0  0  0  0
   10.3659   41.4702   35.8746 O   0  0  0  0  0  1  0  0  0  0  0  0
    9.9476   45.1205   33.2562 C   0  0  2  0  0  0  0  0  0  0  0  0
   11.0780   46.0256   33.4706 N   0  0  0  0  0  0  0  0  0  0  0  0
    8.6891   45.6989   33.9365 C   0  0  0  0  0  0  0  0  0  0  0  0
    7.4523   44.9298   33.5829 C   0  0  0  0  0  0  0  0  0  0  0  0
    7.0191   44.8957   32.2524 O   0  0  0  0  0  0  0  0  0  0  0  0
    6.8189   44.3126   34.4826 O   0  0  0  0  0  0  0  0  0  0  0  0
    5.8739   44.1593   31.8238 C   0  0  0  0  0  0  0  0  0  0  0  0
    4.5885   44.7894   32.3171 C   0  0  0  0  0  0  0  0  0  0  0  0
    3.4503   44.0060   32.6425 C   0  0  0  0  0  0  0  0  0  0  0  0
    4.5104   46.1907   32.4353 C   0  0  0  0  0  0  0  0  0  0  0  0
    3.4298   42.5836   32.4349 N   0  0  0  0  0  4  0  0  0  0  0  0
    2.3056   44.6384   33.1604 C   0  0  0  0  0  0  0  0  0  0  0  0
    3.3583   46.8009   32.9332 C   0  0  0  0  0  0  0  0  0  0  0  0
    3.9191   42.0473   31.2660 O   0  0  0  0  0  1  0  0  0  0  0  0
    2.7904   41.8465   33.2137 O   0  0  0  0  0  0  0  0  0  0  0  0
    2.2627   46.0254   33.3067 C   0  0  0  0  0  0  0  0  0  0  0  0
    8.8083   40.1913   34.2082 O   0  0  0  0  0  0  0  0  0  0  0  0
   11.2378   40.7896   33.3687 O   0  0  0  0  0  0  0  0  0  0  0  0
   10.9160   40.6896   31.9958 C   0  0  0  0  0  0  0  0  0  0  0  0
   11.5271   39.3897   31.4371 C   0  0  0  0  0  0  0  0  0  0  0  0
   12.7509   39.0914   32.0835 O   0  0  0  0  0  0  0  0  0  0  0  0
   10.6122   38.1916   31.6451 C   0  0  0  0  0  0  0  0  0  0  0  0
   12.9429   37.6851   32.0294 C   0  0  0  0  0  0  0  0  0  0  0  0
    9.6069   38.0858   30.6603 O   0  0  0  0  0  0  0  0  0  0  0  0
   11.5844   37.0185   31.6879 C   0  0  0  0  0  0  0  0  0  0  0  0
   13.4899   37.2163   33.3249 N   0  0  0  0  0  0  0  0  0  0  0  0
   11.6200   36.3062   30.4693 O   0  0  0  0  0  0  0  0  0  0  0  0
   14.4759   36.3263   33.5738 C   0  0  0  0  0  0  0  0  0  0  0  0
   13.1175   37.6307   34.5698 C   0  0  0  0  0  0  0  0  0  0  0  0
   15.2065   35.6138   32.6746 N   0  0  0  0  0  0  0  0  0  0  0  0
   14.6731   36.2267   34.9190 C   0  0  0  0  0  0  0  0  0  0  0  0
   13.8224   37.0450   35.5792 N   0  0  0  0  0  0  0  0  0  0  0  0
   16.1640   34.7595   33.1551 C   0  0  0  0  0  0  0  0  0  0  0  0
   15.6517   35.3489   35.4136 C   0  0  0  0  0  0  0  0  0  0  0  0
   16.3795   34.6310   34.5046 N   0  0  0  0  0  0  0  0  0  0  0  0
   15.9006   35.1931   36.8094 N   0  0  0  0  0  0  0  0  0  0  0  0
    9.7651   45.0204   32.1619 H   0  0  0  0  0  0  0  0  0  0  0  0
   10.8347   46.9622   33.0731 H   0  0  0  0  0  0  0  0  0  0  0  0
   11.8863   45.6862   32.8984 H   0  0  0  0  0  0  0  0  0  0  0  0
    8.8288   45.7149   35.0405 H   0  0  0  0  0  0  0  0  0  0  0  0
    8.5356   46.7482   33.6047 H   0  0  0  0  0  0  0  0  0  0  0  0
    5.8567   44.1430   30.7142 H   0  0  0  0  0  0  0  0  0  0  0  0
    5.9787   43.1143   32.1850 H   0  0  0  0  0  0  0  0  0  0  0  0
    5.3493   46.8157   32.1556 H   0  0  0  0  0  0  0  0  0  0  0  0
    1.4318   44.0565   33.4254 H   0  0  0  0  0  0  0  0  0  0  0  0
    3.3169   47.8779   33.0328 H   0  0  0  0  0  0  0  0  0  0  0  0
    1.3714   46.5010   33.6953 H   0  0  0  0  0  0  0  0  0  0  0  0
   11.3831   41.5525   31.4746 H   0  0  0  0  0  0  0  0  0  0  0  0
    9.8258   40.7192   31.7586 H   0  0  0  0  0  0  0  0  0  0  0  0
   11.7319   39.5336   30.3517 H   0  0  0  0  0  0  0  0  0  0  0  0
   10.1215   38.2684   32.6412 H   0  0  0  0  0  0  0  0  0  0  0  0
   13.6882   37.4704   31.2318 H   0  0  0  0  0  0  0  0  0  0  0  0
   10.0255   38.1751   29.7656 H   0  0  0  0  0  0  0  0  0  0  0  0
   11.2794   36.3123   32.4915 H   0  0  0  0  0  0  0  0  0  0  0  0
   11.9869   36.9099   29.7714 H   0  0  0  0  0  0  0  0  0  0  0  0
   12.3365   38.3595   34.7453 H   0  0  0  0  0  0  0  0  0  0  0  0
   16.7577   34.1794   32.4622 H   0  0  0  0  0  0  0  0  0  0  0  0
   15.3532   35.7351   37.5143 H   0  0  0  0  0  0  0  0  0  0  0  0
   16.6368   34.5316   37.1418 H   0  0  0  0  0  0  0  0  0  0  0  0
  1  2  2  0
  1  3  1  0
  3  4  1  0
  4  5  1  0
  6  1  1  0
  7  6  1  0
  6  8  1  0
  8  9  1  0
  9 10  1  0
  9 11  2  0
 10 12  1  0
 12 13  1  0
 13 14  2  0
 15 13  1  0
 14 16  1  0
 14 17  1  0
 18 15  2  0
 16 19  1  0
 16 20  2  0
 17 21  2  0
 21 18  1  0
  4 22  2  0
  4 23  1  0
 24 23  1  0
 24 25  1  0
 25 26  1  0
 25 27  1  0
 26 28  1  0
 27 29  1  0
 27 30  1  0
 30 28  1  0
 28 31  1  0
 30 32  1  0
 33 31  1  0
 34 31  1  0
 35 33  2  0
 33 36  1  0
 37 34  2  0
 38 35  1  0
 36 39  2  0
 36 37  1  0
 40 38  2  0
 40 39  1  0
 39 41  1  0
  6 42  1  6
  7 43  1  0
  7 44  1  0
  8 45  1  0
  8 46  1  0
 12 47  1  0
 12 48  1  0
 15 49  1  0
 17 50  1  0
 18 51  1  0
 21 52  1  0
 24 53  1  0
 24 54  1  0
 25 55  1  0
 27 56  1  0
 28 57  1  0
 29 58  1  0
 30 59  1  0
 32 60  1  0
 34 61  1  0
 38 62  1  0
 41 63  1  0
 41 64  1  0
M  CHG  3   5  -1  16   1  19  -1
M  END
>  <EmbedRMS>  (133) 
0.08730800096101236

$$$$

     RDKit          3D

 64 67  0  0  0  0  0  0  0  0999 V2000
   10.2860   43.7721   33.8047 C   0  0  0  0  0  0  0  0  0  0  0  0
   11.4085   43.5885   34.3610 O   0  0  0  0  0  0  0  0  0  0  0  0
    9.3673   42.7311   33.6995 O   0  0  0  0  0  0  0  0  0  0  0  0
    9.8853   41.2343   34.2839 P   0  0  0  0  0  5  0  0  0  0  0  0
   10.3661   41.4700   35.8743 O   0  0  0  0  0  1  0  0  0  0  0  0
    9.9530   45.1149   33.2534 C   0  0  2  0  0  0  0  0  0  0  0  0
   11.0712   46.0333   33.4766 N   0  0  0  0  0  0  0  0  0  0  0  0
    8.6604   45.6660   33.8888 C   0  0  0  0  0  0  0  0  0  0  0  0
    8.7936   45.8672   35.3691 C   0  0  0  0  0  0  0  0  0  0  0  0
    9.3499   47.0559   35.8551 O   0  0  0  0  0  0  0  0  0  0  0  0
    8.4351   44.9527   36.1607 O   0  0  0  0  0  0  0  0  0  0  0  0
    9.5251   47.3235   37.2462 C   0  0  0  0  0  0  0  0  0  0  0  0
    8.1993   47.5512   37.9413 C   0  0  0  0  0  0  0  0  0  0  0  0
    7.9888   47.1679   39.2918 C   0  0  0  0  0  0  0  0  0  0  0  0
    7.1532   48.1800   37.2383 C   0  0  0  0  0  0  0  0  0  0  0  0
    9.0506   46.6274   40.0962 N   0  0  0  0  0  4  0  0  0  0  0  0
    6.7162   47.3413   39.8655 C   0  0  0  0  0  0  0  0  0  0  0  0
    5.9032   48.3606   37.8318 C   0  0  0  0  0  0  0  0  0  0  0  0
   10.2998   47.2037   40.0719 O   0  0  0  0  0  1  0  0  0  0  0  0
    8.8008   45.7691   40.9678 O   0  0  0  0  0  0  0  0  0  0  0  0
    5.6814   47.9308   39.1385 C   0  0  0  0  0  0  0  0  0  0  0  0
    8.8077   40.1915   34.2086 O   0  0  0  0  0  0  0  0  0  0  0  0
   11.2368   40.7908   33.3672 O   0  0  0  0  0  0  0  0  0  0  0  0
   10.9136   40.6860   31.9946 C   0  0  0  0  0  0  0  0  0  0  0  0
   11.5170   39.3797   31.4409 C   0  0  0  0  0  0  0  0  0  0  0  0
   12.7488   39.0886   32.0762 O   0  0  0  0  0  0  0  0  0  0  0  0
   10.6051   38.1876   31.6659 C   0  0  0  0  0  0  0  0  0  0  0  0
   12.9412   37.6828   32.0278 C   0  0  0  0  0  0  0  0  0  0  0  0
    9.6358   38.0930   30.6503 O   0  0  0  0  0  0  0  0  0  0  0  0
   11.5827   37.0179   31.6936 C   0  0  0  0  0  0  0  0  0  0  0  0
   13.4909   37.2176   33.3239 N   0  0  0  0  0  0  0  0  0  0  0  0
   11.6140   36.3180   30.4675 O   0  0  0  0  0  0  0  0  0  0  0  0
   14.4763   36.3270   33.5733 C   0  0  0  0  0  0  0  0  0  0  0  0
   13.1179   37.6316   34.5689 C   0  0  0  0  0  0  0  0  0  0  0  0
   15.2067   35.6140   32.6744 N   0  0  0  0  0  0  0  0  0  0  0  0
   14.6731   36.2272   34.9186 C   0  0  0  0  0  0  0  0  0  0  0  0
   13.8223   37.0456   35.5785 N   0  0  0  0  0  0  0  0  0  0  0  0
   16.1639   34.7595   33.1551 C   0  0  0  0  0  0  0  0  0  0  0  0
   15.6515   35.3491   35.4134 C   0  0  0  0  0  0  0  0  0  0  0  0
   16.3793   34.6310   34.5045 N   0  0  0  0  0  0  0  0  0  0  0  0
   15.9002   35.1933   36.8093 N   0  0  0  0  0  0  0  0  0  0  0  0
    9.7833   45.0053   32.1586 H   0  0  0  0  0  0  0  0  0  0  0  0
   10.8100   46.9717   33.0949 H   0  0  0  0  0  0  0  0  0  0  0  0
   11.8827   45.7125   32.8984 H   0  0  0  0  0  0  0  0  0  0  0  0
    7.8142   44.9746   33.6816 H   0  0  0  0  0  0  0  0  0  0  0  0
    8.4033   46.6388   33.4169 H   0  0  0  0  0  0  0  0  0  0  0  0
   10.1444   48.2378   37.3572 H   0  0  0  0  0  0  0  0  0  0  0  0
   10.0787   46.4724   37.6963 H   0  0  0  0  0  0  0  0  0  0  0  0
    7.2985   48.5198   36.2204 H   0  0  0  0  0  0  0  0  0  0  0  0
    6.5332   47.0443   40.8905 H   0  0  0  0  0  0  0  0  0  0  0  0
    5.1034   48.8320   37.2752 H   0  0  0  0  0  0  0  0  0  0  0  0
    4.7100   48.0694   39.5954 H   0  0  0  0  0  0  0  0  0  0  0  0
   11.3856   41.5433   31.4688 H   0  0  0  0  0  0  0  0  0  0  0  0
    9.8235   40.7210   31.7580 H   0  0  0  0  0  0  0  0  0  0  0  0
   11.6994   39.5065   30.3488 H   0  0  0  0  0  0  0  0  0  0  0  0
   10.1120   38.2722   32.6632 H   0  0  0  0  0  0  0  0  0  0  0  0
   13.6816   37.4632   31.2269 H   0  0  0  0  0  0  0  0  0  0  0  0
    9.0037   37.3828   30.9349 H   0  0  0  0  0  0  0  0  0  0  0  0
   11.2846   36.3040   32.4928 H   0  0  0  0  0  0  0  0  0  0  0  0
   11.8850   36.9590   29.7588 H   0  0  0  0  0  0  0  0  0  0  0  0
   12.3363   38.3599   34.7441 H   0  0  0  0  0  0  0  0  0  0  0  0
   16.7574   34.1791   32.4623 H   0  0  0  0  0  0  0  0  0  0  0  0
   15.3529   35.7356   37.5141 H   0  0  0  0  0  0  0  0  0  0  0  0
   16.6363   34.5317   37.1418 H   0  0  0  0  0  0  0  0  0  0  0  0
  1  2  2  0
  1  3  1  0
  3  4  1  0
  4  5  1  0
  6  1  1  0
  7  6  1  0
  6  8  1  0
  8  9  1  0
  9 10  1  0
  9 11  2  0
 10 12  1  0
 12 13  1  0
 13 14  2  0
 15 13  1  0
 14 16  1  0
 14 17  1  0
 18 15  2  0
 16 19  1  0
 16 20  2  0
 17 21  2  0
 21 18  1  0
  4 22  2  0
  4 23  1  0
 24 23  1  0
 24 25  1  0
 25 26  1  0
 25 27  1  0
 26 28  1  0
 27 29  1  0
 27 30  1  0
 30 28  1  0
 28 31  1  0
 30 32  1  0
 33 31  1  0
 34 31  1  0
 35 33  2  0
 33 36  1  0
 37 34  2  0
 38 35  1  0
 36 39  2  0
 36 37  1  0
 40 38  2  0
 40 39  1  0
 39 41  1  0
  6 42  1  6
  7 43  1  0
  7 44  1  0
  8 45  1  0
  8 46  1  0
 12 47  1  0
 12 48  1  0
 15 49  1  0
 17 50  1  0
 18 51  1  0
 21 52  1  0
 24 53  1  0
 24 54  1  0
 25 55  1  0
 27 56  1  0
 28 57  1  0
 29 58  1  0
 30 59  1  0
 32 60  1  0
 34 61  1  0
 38 62  1  0
 41 63  1  0
 41 64  1  0
M  CHG  3   5  -1  16   1  19  -1
M  END
>  <EmbedRMS>  (134) 
0.0878660850154594

$$$$

     RDKit          3D

 64 67  0  0  0  0  0  0  0  0999 V2000
   10.2850   43.7725   33.8067 C   0  0  0  0  0  0  0  0  0  0  0  0
   11.4105   43.5874   34.3562 O   0  0  0  0  0  0  0  0  0  0  0  0
    9.3666   42.7312   33.7012 O   0  0  0  0  0  0  0  0  0  0  0  0
    9.8855   41.2340   34.2841 P   0  0  0  0  0  5  0  0  0  0  0  0
   10.3658   41.4695   35.8746 O   0  0  0  0  0  1  0  0  0  0  0  0
    9.9582   45.1107   33.2440 C   0  0  2  0  0  0  0  0  0  0  0  0
   11.0675   46.0366   33.4847 N   0  0  0  0  0  0  0  0  0  0  0  0
    8.6199   45.6578   33.7902 C   0  0  0  0  0  0  0  0  0  0  0  0
    8.6109   45.8077   35.2829 C   0  0  0  0  0  0  0  0  0  0  0  0
    8.9702   47.0342   35.8522 O   0  0  0  0  0  0  0  0  0  0  0  0
    8.3131   44.8207   36.0091 O   0  0  0  0  0  0  0  0  0  0  0  0
    8.9595   47.2876   37.2556 C   0  0  0  0  0  0  0  0  0  0  0  0
    7.5443   47.4431   37.7592 C   0  0  0  0  0  0  0  0  0  0  0  0
    6.8147   48.6532   37.6079 C   0  0  0  0  0  0  0  0  0  0  0  0
    6.9417   46.3554   38.4177 C   0  0  0  0  0  0  0  0  0  0  0  0
    7.3717   49.7999   36.9387 N   0  0  0  0  0  4  0  0  0  0  0  0
    5.5169   48.7405   38.1455 C   0  0  0  0  0  0  0  0  0  0  0  0
    5.6480   46.4594   38.9295 C   0  0  0  0  0  0  0  0  0  0  0  0
    8.1257   49.6522   35.7982 O   0  0  0  0  0  1  0  0  0  0  0  0
    7.0402   50.9509   37.2913 O   0  0  0  0  0  0  0  0  0  0  0  0
    4.9383   47.6506   38.7967 C   0  0  0  0  0  0  0  0  0  0  0  0
    8.8081   40.1910   34.2081 O   0  0  0  0  0  0  0  0  0  0  0  0
   11.2381   40.7905   33.3685 O   0  0  0  0  0  0  0  0  0  0  0  0
   10.9185   40.6888   31.9948 C   0  0  0  0  0  0  0  0  0  0  0  0
   11.5179   39.3800   31.4399 C   0  0  0  0  0  0  0  0  0  0  0  0
   12.7483   39.0876   32.0751 O   0  0  0  0  0  0  0  0  0  0  0  0
   10.6053   38.1874   31.6657 C   0  0  0  0  0  0  0  0  0  0  0  0
   12.9360   37.6817   32.0288 C   0  0  0  0  0  0  0  0  0  0  0  0
    9.6423   38.0737   30.6445 O   0  0  0  0  0  0  0  0  0  0  0  0
   11.5765   37.0158   31.7046 C   0  0  0  0  0  0  0  0  0  0  0  0
   13.4908   37.2183   33.3237 N   0  0  0  0  0  0  0  0  0  0  0  0
   11.6103   36.3399   30.4680 O   0  0  0  0  0  0  0  0  0  0  0  0
   14.4762   36.3274   33.5728 C   0  0  0  0  0  0  0  0  0  0  0  0
   13.1181   37.6318   34.5689 C   0  0  0  0  0  0  0  0  0  0  0  0
   15.2063   35.6141   32.6739 N   0  0  0  0  0  0  0  0  0  0  0  0
   14.6733   36.2275   34.9182 C   0  0  0  0  0  0  0  0  0  0  0  0
   13.8226   37.0457   35.5783 N   0  0  0  0  0  0  0  0  0  0  0  0
   16.1635   34.7595   33.1546 C   0  0  0  0  0  0  0  0  0  0  0  0
   15.6515   35.3492   35.4130 C   0  0  0  0  0  0  0  0  0  0  0  0
   16.3791   34.6310   34.5041 N   0  0  0  0  0  0  0  0  0  0  0  0
   15.9002   35.1933   36.8089 N   0  0  0  0  0  0  0  0  0  0  0  0
    9.8483   44.9838   32.1446 H   0  0  0  0  0  0  0  0  0  0  0  0
   10.8529   46.9460   33.0145 H   0  0  0  0  0  0  0  0  0  0  0  0
   11.1608   46.2295   34.5085 H   0  0  0  0  0  0  0  0  0  0  0  0
    7.7915   44.9803   33.4877 H   0  0  0  0  0  0  0  0  0  0  0  0
    8.4111   46.6462   33.3271 H   0  0  0  0  0  0  0  0  0  0  0  0
    9.5315   48.2166   37.4602 H   0  0  0  0  0  0  0  0  0  0  0  0
    9.4938   46.4713   37.7903 H   0  0  0  0  0  0  0  0  0  0  0  0
    7.4791   45.4241   38.5467 H   0  0  0  0  0  0  0  0  0  0  0  0
    4.9436   49.6536   38.0459 H   0  0  0  0  0  0  0  0  0  0  0  0
    5.1974   45.6155   39.4359 H   0  0  0  0  0  0  0  0  0  0  0  0
    3.9362   47.7300   39.1980 H   0  0  0  0  0  0  0  0  0  0  0  0
   11.3986   41.5436   31.4723 H   0  0  0  0  0  0  0  0  0  0  0  0
    9.8304   40.7372   31.7554 H   0  0  0  0  0  0  0  0  0  0  0  0
   11.7001   39.5046   30.3474 H   0  0  0  0  0  0  0  0  0  0  0  0
   10.1103   38.2618   32.6636 H   0  0  0  0  0  0  0  0  0  0  0  0
   13.6696   37.4588   31.2223 H   0  0  0  0  0  0  0  0  0  0  0  0
    8.8999   38.6880   30.8814 H   0  0  0  0  0  0  0  0  0  0  0  0
   11.2690   36.3069   32.5091 H   0  0  0  0  0  0  0  0  0  0  0  0
   12.1427   35.5151   30.6153 H   0  0  0  0  0  0  0  0  0  0  0  0
   12.3359   38.3593   34.7445 H   0  0  0  0  0  0  0  0  0  0  0  0
   16.7569   34.1789   32.4618 H   0  0  0  0  0  0  0  0  0  0  0  0
   15.3530   35.7356   37.5138 H   0  0  0  0  0  0  0  0  0  0  0  0
   16.6362   34.5315   37.1413 H   0  0  0  0  0  0  0  0  0  0  0  0
  1  2  2  0
  1  3  1  0
  3  4  1  0
  4  5  1  0
  6  1  1  0
  7  6  1  0
  6  8  1  0
  8  9  1  0
  9 10  1  0
  9 11  2  0
 10 12  1  0
 12 13  1  0
 13 14  2  0
 15 13  1  0
 14 16  1  0
 14 17  1  0
 18 15  2  0
 16 19  1  0
 16 20  2  0
 17 21  2  0
 21 18  1  0
  4 22  2  0
  4 23  1  0
 24 23  1  0
 24 25  1  0
 25 26  1  0
 25 27  1  0
 26 28  1  0
 27 29  1  0
 27 30  1  0
 30 28  1  0
 28 31  1  0
 30 32  1  0
 33 31  1  0
 34 31  1  0
 35 33  2  0
 33 36  1  0
 37 34  2  0
 38 35  1  0
 36 39  2  0
 36 37  1  0
 40 38  2  0
 40 39  1  0
 39 41  1  0
  6 42  1  6
  7 43  1  0
  7 44  1  0
  8 45  1  0
  8 46  1  0
 12 47  1  0
 12 48  1  0
 15 49  1  0
 17 50  1  0
 18 51  1  0
 21 52  1  0
 24 53  1  0
 24 54  1  0
 25 55  1  0
 27 56  1  0
 28 57  1  0
 29 58  1  0
 30 59  1  0
 32 60  1  0
 34 61  1  0
 38 62  1  0
 41 63  1  0
 41 64  1  0
M  CHG  3   5  -1  16   1  19  -1
M  END
>  <EmbedRMS>  (135) 
0.08920427667004242

$$$$

     RDKit          3D

 64 67  0  0  0  0  0  0  0  0999 V2000
   10.2818   43.7752   33.8069 C   0  0  0  0  0  0  0  0  0  0  0  0
   11.4044   43.5920   34.3639 O   0  0  0  0  0  0  0  0  0  0  0  0
    9.3732   42.7272   33.6908 O   0  0  0  0  0  0  0  0  0  0  0  0
    9.8877   41.2329   34.2823 P   0  0  0  0  0  5  0  0  0  0  0  0
   10.3654   41.4716   35.8732 O   0  0  0  0  0  1  0  0  0  0  0  0
    9.9422   45.1251   33.2662 C   0  0  2  0  0  0  0  0  0  0  0  0
   11.0805   46.0238   33.4677 N   0  0  0  0  0  0  0  0  0  0  0  0
    8.6980   45.7041   33.9763 C   0  0  0  0  0  0  0  0  0  0  0  0
    7.4293   45.0579   33.5073 C   0  0  0  0  0  0  0  0  0  0  0  0
    6.9693   43.9039   34.1457 O   0  0  0  0  0  0  0  0  0  0  0  0
    6.8088   45.5380   32.5196 O   0  0  0  0  0  0  0  0  0  0  0  0
    5.7910   43.2106   33.7480 C   0  0  0  0  0  0  0  0  0  0  0  0
    5.7225   41.8802   34.4567 C   0  0  0  0  0  0  0  0  0  0  0  0
    5.8649   41.7653   35.8659 C   0  0  0  0  0  0  0  0  0  0  0  0
    5.5564   40.7134   33.6868 C   0  0  0  0  0  0  0  0  0  0  0  0
    6.0067   42.9214   36.7113 N   0  0  0  0  0  4  0  0  0  0  0  0
    5.8796   40.4855   36.4506 C   0  0  0  0  0  0  0  0  0  0  0  0
    5.5555   39.4552   34.2898 C   0  0  0  0  0  0  0  0  0  0  0  0
    5.2656   44.0563   36.4777 O   0  0  0  0  0  1  0  0  0  0  0  0
    6.6847   42.8525   37.7574 O   0  0  0  0  0  0  0  0  0  0  0  0
    5.7239   39.3410   35.6679 C   0  0  0  0  0  0  0  0  0  0  0  0
    8.8103   40.1904   34.2076 O   0  0  0  0  0  0  0  0  0  0  0  0
   11.2387   40.7880   33.3666 O   0  0  0  0  0  0  0  0  0  0  0  0
   10.9154   40.6844   31.9936 C   0  0  0  0  0  0  0  0  0  0  0  0
   11.5168   39.3770   31.4391 C   0  0  0  0  0  0  0  0  0  0  0  0
   12.7475   39.0850   32.0733 O   0  0  0  0  0  0  0  0  0  0  0  0
   10.6046   38.1868   31.6672 C   0  0  0  0  0  0  0  0  0  0  0  0
   12.9344   37.6787   32.0281 C   0  0  0  0  0  0  0  0  0  0  0  0
    9.6375   38.0919   30.6493 O   0  0  0  0  0  0  0  0  0  0  0  0
   11.5758   37.0128   31.7057 C   0  0  0  0  0  0  0  0  0  0  0  0
   13.4908   37.2176   33.3233 N   0  0  0  0  0  0  0  0  0  0  0  0
   11.6229   36.3371   30.4684 O   0  0  0  0  0  0  0  0  0  0  0  0
   14.4765   36.3271   33.5727 C   0  0  0  0  0  0  0  0  0  0  0  0
   13.1180   37.6315   34.5685 C   0  0  0  0  0  0  0  0  0  0  0  0
   15.2066   35.6137   32.6739 N   0  0  0  0  0  0  0  0  0  0  0  0
   14.6735   36.2276   34.9182 C   0  0  0  0  0  0  0  0  0  0  0  0
   13.8226   37.0458   35.5781 N   0  0  0  0  0  0  0  0  0  0  0  0
   16.1638   34.7593   33.1548 C   0  0  0  0  0  0  0  0  0  0  0  0
   15.6517   35.3493   35.4131 C   0  0  0  0  0  0  0  0  0  0  0  0
   16.3792   34.6309   34.5043 N   0  0  0  0  0  0  0  0  0  0  0  0
   15.9002   35.1934   36.8090 N   0  0  0  0  0  0  0  0  0  0  0  0
    9.7409   45.0340   32.1743 H   0  0  0  0  0  0  0  0  0  0  0  0
   10.8417   46.9593   33.0648 H   0  0  0  0  0  0  0  0  0  0  0  0
   11.8825   45.6759   32.8918 H   0  0  0  0  0  0  0  0  0  0  0  0
    8.6217   46.7950   33.7749 H   0  0  0  0  0  0  0  0  0  0  0  0
    8.7919   45.5822   35.0779 H   0  0  0  0  0  0  0  0  0  0  0  0
    5.8121   43.0640   32.6453 H   0  0  0  0  0  0  0  0  0  0  0  0
    4.8919   43.8158   33.9882 H   0  0  0  0  0  0  0  0  0  0  0  0
    5.4419   40.7735   32.6115 H   0  0  0  0  0  0  0  0  0  0  0  0
    5.9950   40.3743   37.5214 H   0  0  0  0  0  0  0  0  0  0  0  0
    5.4340   38.5658   33.6850 H   0  0  0  0  0  0  0  0  0  0  0  0
    5.7295   38.3633   36.1323 H   0  0  0  0  0  0  0  0  0  0  0  0
   11.3887   41.5412   31.4681 H   0  0  0  0  0  0  0  0  0  0  0  0
    9.8252   40.7212   31.7569 H   0  0  0  0  0  0  0  0  0  0  0  0
   11.6984   39.5011   30.3465 H   0  0  0  0  0  0  0  0  0  0  0  0
   10.1096   38.2774   32.6633 H   0  0  0  0  0  0  0  0  0  0  0  0
   13.6670   37.4536   31.2212 H   0  0  0  0  0  0  0  0  0  0  0  0
    8.9753   37.4190   30.9558 H   0  0  0  0  0  0  0  0  0  0  0  0
   11.2857   36.3040   32.5177 H   0  0  0  0  0  0  0  0  0  0  0  0
   10.8678   35.6926   30.4654 H   0  0  0  0  0  0  0  0  0  0  0  0
   12.3353   38.3585   34.7439 H   0  0  0  0  0  0  0  0  0  0  0  0
   16.7572   34.1786   32.4621 H   0  0  0  0  0  0  0  0  0  0  0  0
   16.6360   34.5315   37.1416 H   0  0  0  0  0  0  0  0  0  0  0  0
   15.3530   35.7358   37.5138 H   0  0  0  0  0  0  0  0  0  0  0  0
  1  2  2  0
  1  3  1  0
  3  4  1  0
  4  5  1  0
  6  1  1  0
  7  6  1  0
  6  8  1  0
  8  9  1  0
  9 10  1  0
  9 11  2  0
 10 12  1  0
 12 13  1  0
 13 14  2  0
 15 13  1  0
 14 16  1  0
 14 17  1  0
 18 15  2  0
 16 19  1  0
 16 20  2  0
 17 21  2  0
 21 18  1  0
  4 22  2  0
  4 23  1  0
 24 23  1  0
 24 25  1  0
 25 26  1  0
 25 27  1  0
 26 28  1  0
 27 29  1  0
 27 30  1  0
 30 28  1  0
 28 31  1  0
 30 32  1  0
 33 31  1  0
 34 31  1  0
 35 33  2  0
 33 36  1  0
 37 34  2  0
 38 35  1  0
 36 39  2  0
 36 37  1  0
 40 38  2  0
 40 39  1  0
 39 41  1  0
  6 42  1  6
  7 43  1  0
  7 44  1  0
  8 45  1  0
  8 46  1  0
 12 47  1  0
 12 48  1  0
 15 49  1  0
 17 50  1  0
 18 51  1  0
 21 52  1  0
 24 53  1  0
 24 54  1  0
 25 55  1  0
 27 56  1  0
 28 57  1  0
 29 58  1  0
 30 59  1  0
 32 60  1  0
 34 61  1  0
 38 62  1  0
 41 63  1  0
 41 64  1  0
M  CHG  3   5  -1  16   1  19  -1
M  END
>  <EmbedRMS>  (136) 
0.08963739813471812

$$$$

     RDKit          3D

 64 67  0  0  0  0  0  0  0  0999 V2000
   10.2811   43.7760   33.8098 C   0  0  0  0  0  0  0  0  0  0  0  0
   11.4072   43.5920   34.3592 O   0  0  0  0  0  0  0  0  0  0  0  0
    9.3698   42.7293   33.6980 O   0  0  0  0  0  0  0  0  0  0  0  0
    9.8867   41.2337   34.2840 P   0  0  0  0  0  5  0  0  0  0  0  0
   10.3665   41.4701   35.8745 O   0  0  0  0  0  1  0  0  0  0  0  0
    9.9500   45.1174   33.2493 C   0  0  2  0  0  0  0  0  0  0  0  0
   11.0751   46.0256   33.4790 N   0  0  0  0  0  0  0  0  0  0  0  0
    8.6572   45.6938   33.8692 C   0  0  0  0  0  0  0  0  0  0  0  0
    7.4402   44.9335   33.4389 C   0  0  0  0  0  0  0  0  0  0  0  0
    6.8366   44.0393   34.3308 O   0  0  0  0  0  0  0  0  0  0  0  0
    6.9890   45.0821   32.2703 O   0  0  0  0  0  0  0  0  0  0  0  0
    5.7215   43.2201   33.9808 C   0  0  0  0  0  0  0  0  0  0  0  0
    4.4572   44.0368   33.8171 C   0  0  0  0  0  0  0  0  0  0  0  0
    3.4495   43.6727   32.8860 C   0  0  0  0  0  0  0  0  0  0  0  0
    4.2626   45.1738   34.6253 C   0  0  0  0  0  0  0  0  0  0  0  0
    3.5371   42.4621   32.1154 N   0  0  0  0  0  4  0  0  0  0  0  0
    2.3263   44.5046   32.7280 C   0  0  0  0  0  0  0  0  0  0  0  0
    3.1317   45.9759   34.4666 C   0  0  0  0  0  0  0  0  0  0  0  0
    3.9238   41.2857   32.7152 O   0  0  0  0  0  1  0  0  0  0  0  0
    3.0735   42.4226   30.9569 O   0  0  0  0  0  0  0  0  0  0  0  0
    2.1716   45.6488   33.5113 C   0  0  0  0  0  0  0  0  0  0  0  0
    8.8080   40.1919   34.2085 O   0  0  0  0  0  0  0  0  0  0  0  0
   11.2378   40.7891   33.3680 O   0  0  0  0  0  0  0  0  0  0  0  0
   10.9156   40.6880   31.9950 C   0  0  0  0  0  0  0  0  0  0  0  0
   11.5261   39.3870   31.4363 C   0  0  0  0  0  0  0  0  0  0  0  0
   12.7492   39.0892   32.0816 O   0  0  0  0  0  0  0  0  0  0  0  0
   10.6123   38.1893   31.6461 C   0  0  0  0  0  0  0  0  0  0  0  0
   12.9373   37.6826   32.0300 C   0  0  0  0  0  0  0  0  0  0  0  0
    9.6149   38.0839   30.6538 O   0  0  0  0  0  0  0  0  0  0  0  0
   11.5792   37.0136   31.7013 C   0  0  0  0  0  0  0  0  0  0  0  0
   13.4906   37.2169   33.3242 N   0  0  0  0  0  0  0  0  0  0  0  0
   11.6216   36.3252   30.4725 O   0  0  0  0  0  0  0  0  0  0  0  0
   14.4763   36.3266   33.5731 C   0  0  0  0  0  0  0  0  0  0  0  0
   13.1181   37.6308   34.5694 C   0  0  0  0  0  0  0  0  0  0  0  0
   15.2065   35.6137   32.6740 N   0  0  0  0  0  0  0  0  0  0  0  0
   14.6735   36.2270   34.9185 C   0  0  0  0  0  0  0  0  0  0  0  0
   13.8228   37.0451   35.5787 N   0  0  0  0  0  0  0  0  0  0  0  0
   16.1639   34.7593   33.1547 C   0  0  0  0  0  0  0  0  0  0  0  0
   15.6518   35.3489   35.4132 C   0  0  0  0  0  0  0  0  0  0  0  0
   16.3794   34.6308   34.5042 N   0  0  0  0  0  0  0  0  0  0  0  0
   15.9005   35.1931   36.8090 N   0  0  0  0  0  0  0  0  0  0  0  0
    9.8117   45.0034   32.1509 H   0  0  0  0  0  0  0  0  0  0  0  0
   11.1188   46.2820   34.4932 H   0  0  0  0  0  0  0  0  0  0  0  0
   10.9065   46.9084   32.9436 H   0  0  0  0  0  0  0  0  0  0  0  0
    8.7284   45.6835   34.9790 H   0  0  0  0  0  0  0  0  0  0  0  0
    8.5337   46.7524   33.5529 H   0  0  0  0  0  0  0  0  0  0  0  0
    5.5604   42.4761   34.7884 H   0  0  0  0  0  0  0  0  0  0  0  0
    5.9738   42.6712   33.0488 H   0  0  0  0  0  0  0  0  0  0  0  0
    4.9952   45.4518   35.3727 H   0  0  0  0  0  0  0  0  0  0  0  0
    1.5529   44.2498   32.0145 H   0  0  0  0  0  0  0  0  0  0  0  0
    3.0015   46.8553   35.0842 H   0  0  0  0  0  0  0  0  0  0  0  0
    1.2967   46.2743   33.3883 H   0  0  0  0  0  0  0  0  0  0  0  0
   11.3827   41.5503   31.4730 H   0  0  0  0  0  0  0  0  0  0  0  0
    9.8253   40.7179   31.7584 H   0  0  0  0  0  0  0  0  0  0  0  0
   11.7290   39.5287   30.3502 H   0  0  0  0  0  0  0  0  0  0  0  0
   10.1139   38.2719   32.6379 H   0  0  0  0  0  0  0  0  0  0  0  0
   13.6725   37.4634   31.2239 H   0  0  0  0  0  0  0  0  0  0  0  0
   10.0534   38.1085   29.7638 H   0  0  0  0  0  0  0  0  0  0  0  0
   11.2645   36.3134   32.5107 H   0  0  0  0  0  0  0  0  0  0  0  0
   12.1547   35.5031   30.6315 H   0  0  0  0  0  0  0  0  0  0  0  0
   12.3361   38.3586   34.7450 H   0  0  0  0  0  0  0  0  0  0  0  0
   16.7573   34.1788   32.4619 H   0  0  0  0  0  0  0  0  0  0  0  0
   15.3533   35.7353   37.5139 H   0  0  0  0  0  0  0  0  0  0  0  0
   16.6365   34.5314   37.1415 H   0  0  0  0  0  0  0  0  0  0  0  0
  1  2  2  0
  1  3  1  0
  3  4  1  0
  4  5  1  0
  6  1  1  0
  7  6  1  0
  6  8  1  0
  8  9  1  0
  9 10  1  0
  9 11  2  0
 10 12  1  0
 12 13  1  0
 13 14  2  0
 15 13  1  0
 14 16  1  0
 14 17  1  0
 18 15  2  0
 16 19  1  0
 16 20  2  0
 17 21  2  0
 21 18  1  0
  4 22  2  0
  4 23  1  0
 24 23  1  0
 24 25  1  0
 25 26  1  0
 25 27  1  0
 26 28  1  0
 27 29  1  0
 27 30  1  0
 30 28  1  0
 28 31  1  0
 30 32  1  0
 33 31  1  0
 34 31  1  0
 35 33  2  0
 33 36  1  0
 37 34  2  0
 38 35  1  0
 36 39  2  0
 36 37  1  0
 40 38  2  0
 40 39  1  0
 39 41  1  0
  6 42  1  6
  7 43  1  0
  7 44  1  0
  8 45  1  0
  8 46  1  0
 12 47  1  0
 12 48  1  0
 15 49  1  0
 17 50  1  0
 18 51  1  0
 21 52  1  0
 24 53  1  0
 24 54  1  0
 25 55  1  0
 27 56  1  0
 28 57  1  0
 29 58  1  0
 30 59  1  0
 32 60  1  0
 34 61  1  0
 38 62  1  0
 41 63  1  0
 41 64  1  0
M  CHG  3   5  -1  16   1  19  -1
M  END
>  <EmbedRMS>  (137) 
0.08803391909517665

$$$$

     RDKit          3D

 64 67  0  0  0  0  0  0  0  0999 V2000
   10.2853   43.7709   33.8029 C   0  0  0  0  0  0  0  0  0  0  0  0
   11.4067   43.5873   34.3617 O   0  0  0  0  0  0  0  0  0  0  0  0
    9.3650   42.7313   33.7010 O   0  0  0  0  0  0  0  0  0  0  0  0
    9.8847   41.2347   34.2850 P   0  0  0  0  0  5  0  0  0  0  0  0
   10.3716   41.4712   35.8729 O   0  0  0  0  0  1  0  0  0  0  0  0
    9.9621   45.1102   33.2354 C   0  0  2  0  0  0  0  0  0  0  0  0
   11.0655   46.0376   33.4928 N   0  0  0  0  0  0  0  0  0  0  0  0
    8.6350   45.6600   33.8046 C   0  0  0  0  0  0  0  0  0  0  0  0
    8.5691   45.6609   35.3060 C   0  0  0  0  0  0  0  0  0  0  0  0
    7.3638   45.3235   35.9296 O   0  0  0  0  0  0  0  0  0  0  0  0
    9.5698   46.0111   35.9888 O   0  0  0  0  0  0  0  0  0  0  0  0
    7.2345   45.1146   37.3344 C   0  0  0  0  0  0  0  0  0  0  0  0
    7.7533   43.7468   37.7139 C   0  0  0  0  0  0  0  0  0  0  0  0
    8.6545   43.5373   38.7899 C   0  0  0  0  0  0  0  0  0  0  0  0
    7.2209   42.6314   37.0409 C   0  0  0  0  0  0  0  0  0  0  0  0
    9.2376   44.6318   39.5119 N   0  0  0  0  0  4  0  0  0  0  0  0
    8.9848   42.2233   39.1653 C   0  0  0  0  0  0  0  0  0  0  0  0
    7.5692   41.3347   37.4209 C   0  0  0  0  0  0  0  0  0  0  0  0
    9.9376   45.6041   38.8370 O   0  0  0  0  0  1  0  0  0  0  0  0
    9.3339   44.5742   40.7552 O   0  0  0  0  0  0  0  0  0  0  0  0
    8.4474   41.1307   38.4834 C   0  0  0  0  0  0  0  0  0  0  0  0
    8.8076   40.1913   34.2120 O   0  0  0  0  0  0  0  0  0  0  0  0
   11.2359   40.7906   33.3684 O   0  0  0  0  0  0  0  0  0  0  0  0
   10.9142   40.6896   31.9957 C   0  0  0  0  0  0  0  0  0  0  0  0
   11.5265   39.3898   31.4374 C   0  0  0  0  0  0  0  0  0  0  0  0
   12.7503   39.0918   32.0840 O   0  0  0  0  0  0  0  0  0  0  0  0
   10.6120   38.1914   31.6452 C   0  0  0  0  0  0  0  0  0  0  0  0
   12.9428   37.6855   32.0296 C   0  0  0  0  0  0  0  0  0  0  0  0
    9.6068   38.0856   30.6603 O   0  0  0  0  0  0  0  0  0  0  0  0
   11.5844   37.0186   31.6880 C   0  0  0  0  0  0  0  0  0  0  0  0
   13.4898   37.2165   33.3250 N   0  0  0  0  0  0  0  0  0  0  0  0
   11.6202   36.3063   30.4693 O   0  0  0  0  0  0  0  0  0  0  0  0
   14.4758   36.3264   33.5739 C   0  0  0  0  0  0  0  0  0  0  0  0
   13.1175   37.6308   34.5700 C   0  0  0  0  0  0  0  0  0  0  0  0
   15.2064   35.6140   32.6746 N   0  0  0  0  0  0  0  0  0  0  0  0
   14.6731   36.2268   34.9191 C   0  0  0  0  0  0  0  0  0  0  0  0
   13.8224   37.0450   35.5793 N   0  0  0  0  0  0  0  0  0  0  0  0
   16.1639   34.7596   33.1551 C   0  0  0  0  0  0  0  0  0  0  0  0
   15.6517   35.3489   35.4136 C   0  0  0  0  0  0  0  0  0  0  0  0
   16.3794   34.6310   34.5045 N   0  0  0  0  0  0  0  0  0  0  0  0
   15.9006   35.1931   36.8094 N   0  0  0  0  0  0  0  0  0  0  0  0
    9.8411   44.9940   32.1347 H   0  0  0  0  0  0  0  0  0  0  0  0
   11.9014   45.7167   32.9505 H   0  0  0  0  0  0  0  0  0  0  0  0
   10.8159   46.9707   33.0913 H   0  0  0  0  0  0  0  0  0  0  0  0
    7.7980   45.0407   33.4142 H   0  0  0  0  0  0  0  0  0  0  0  0
    8.4672   46.6954   33.4388 H   0  0  0  0  0  0  0  0  0  0  0  0
    7.7164   45.9435   37.8886 H   0  0  0  0  0  0  0  0  0  0  0  0
    6.1553   45.1540   37.5927 H   0  0  0  0  0  0  0  0  0  0  0  0
    6.5180   42.7670   36.2279 H   0  0  0  0  0  0  0  0  0  0  0  0
    9.6720   42.0466   39.9832 H   0  0  0  0  0  0  0  0  0  0  0  0
    7.1525   40.4863   36.8936 H   0  0  0  0  0  0  0  0  0  0  0  0
    8.7152   40.1242   38.7776 H   0  0  0  0  0  0  0  0  0  0  0  0
   11.3805   41.5527   31.4741 H   0  0  0  0  0  0  0  0  0  0  0  0
    9.8240   40.7181   31.7591 H   0  0  0  0  0  0  0  0  0  0  0  0
   11.7314   39.5338   30.3520 H   0  0  0  0  0  0  0  0  0  0  0  0
   10.1212   38.2680   32.6413 H   0  0  0  0  0  0  0  0  0  0  0  0
   13.6881   37.4712   31.2319 H   0  0  0  0  0  0  0  0  0  0  0  0
   10.0255   38.1748   29.7656 H   0  0  0  0  0  0  0  0  0  0  0  0
   11.2796   36.3123   32.4916 H   0  0  0  0  0  0  0  0  0  0  0  0
   11.9872   36.9100   29.7715 H   0  0  0  0  0  0  0  0  0  0  0  0
   12.3364   38.3596   34.7455 H   0  0  0  0  0  0  0  0  0  0  0  0
   16.7576   34.1795   32.4622 H   0  0  0  0  0  0  0  0  0  0  0  0
   16.6368   34.5316   37.1418 H   0  0  0  0  0  0  0  0  0  0  0  0
   15.3532   35.7351   37.5143 H   0  0  0  0  0  0  0  0  0  0  0  0
  1  2  2  0
  1  3  1  0
  3  4  1  0
  4  5  1  0
  6  1  1  0
  7  6  1  0
  6  8  1  0
  8  9  1  0
  9 10  1  0
  9 11  2  0
 10 12  1  0
 12 13  1  0
 13 14  2  0
 15 13  1  0
 14 16  1  0
 14 17  1  0
 18 15  2  0
 16 19  1  0
 16 20  2  0
 17 21  2  0
 21 18  1  0
  4 22  2  0
  4 23  1  0
 24 23  1  0
 24 25  1  0
 25 26  1  0
 25 27  1  0
 26 28  1  0
 27 29  1  0
 27 30  1  0
 30 28  1  0
 28 31  1  0
 30 32  1  0
 33 31  1  0
 34 31  1  0
 35 33  2  0
 33 36  1  0
 37 34  2  0
 38 35  1  0
 36 39  2  0
 36 37  1  0
 40 38  2  0
 40 39  1  0
 39 41  1  0
  6 42  1  6
  7 43  1  0
  7 44  1  0
  8 45  1  0
  8 46  1  0
 12 47  1  0
 12 48  1  0
 15 49  1  0
 17 50  1  0
 18 51  1  0
 21 52  1  0
 24 53  1  0
 24 54  1  0
 25 55  1  0
 27 56  1  0
 28 57  1  0
 29 58  1  0
 30 59  1  0
 32 60  1  0
 34 61  1  0
 38 62  1  0
 41 63  1  0
 41 64  1  0
M  CHG  3   5  -1  16   1  19  -1
M  END
>  <EmbedRMS>  (138) 
0.08646735653704657

$$$$

     RDKit          3D

 64 67  0  0  0  0  0  0  0  0999 V2000
   10.2862   43.7718   33.8043 C   0  0  0  0  0  0  0  0  0  0  0  0
   11.4087   43.5883   34.3609 O   0  0  0  0  0  0  0  0  0  0  0  0
    9.3677   42.7307   33.6989 O   0  0  0  0  0  0  0  0  0  0  0  0
    9.8858   41.2339   34.2836 P   0  0  0  0  0  5  0  0  0  0  0  0
   10.3655   41.4701   35.8743 O   0  0  0  0  0  1  0  0  0  0  0  0
    9.9531   45.1147   33.2534 C   0  0  2  0  0  0  0  0  0  0  0  0
   11.0711   46.0329   33.4769 N   0  0  0  0  0  0  0  0  0  0  0  0
    8.6598   45.6659   33.8879 C   0  0  0  0  0  0  0  0  0  0  0  0
    8.7696   45.8147   35.3770 C   0  0  0  0  0  0  0  0  0  0  0  0
    9.4922   46.8849   35.9111 O   0  0  0  0  0  0  0  0  0  0  0  0
    8.2365   44.9575   36.1334 O   0  0  0  0  0  0  0  0  0  0  0  0
    9.6463   47.0848   37.3127 C   0  0  0  0  0  0  0  0  0  0  0  0
   10.5543   48.2630   37.5627 C   0  0  0  0  0  0  0  0  0  0  0  0
   11.8697   48.3328   37.0272 C   0  0  0  0  0  0  0  0  0  0  0  0
   10.0637   49.3429   38.3208 C   0  0  0  0  0  0  0  0  0  0  0  0
   12.4374   47.2572   36.2559 N   0  0  0  0  0  4  0  0  0  0  0  0
   12.6355   49.4936   37.2446 C   0  0  0  0  0  0  0  0  0  0  0  0
   10.8468   50.4773   38.5361 C   0  0  0  0  0  0  0  0  0  0  0  0
   12.2183   45.9459   36.6079 O   0  0  0  0  0  1  0  0  0  0  0  0
   13.2695   47.5037   35.3583 O   0  0  0  0  0  0  0  0  0  0  0  0
   12.1282   50.5544   37.9955 C   0  0  0  0  0  0  0  0  0  0  0  0
    8.8083   40.1911   34.2077 O   0  0  0  0  0  0  0  0  0  0  0  0
   11.2386   40.7898   33.3687 O   0  0  0  0  0  0  0  0  0  0  0  0
   10.9197   40.6894   31.9949 C   0  0  0  0  0  0  0  0  0  0  0  0
   11.5172   39.3801   31.4397 C   0  0  0  0  0  0  0  0  0  0  0  0
   12.7480   39.0861   32.0733 O   0  0  0  0  0  0  0  0  0  0  0  0
   10.6032   38.1891   31.6666 C   0  0  0  0  0  0  0  0  0  0  0  0
   12.9336   37.6796   32.0279 C   0  0  0  0  0  0  0  0  0  0  0  0
    9.6397   38.0777   30.6456 O   0  0  0  0  0  0  0  0  0  0  0  0
   11.5739   37.0154   31.7057 C   0  0  0  0  0  0  0  0  0  0  0  0
   13.4903   37.2178   33.3231 N   0  0  0  0  0  0  0  0  0  0  0  0
   11.6211   36.3376   30.4695 O   0  0  0  0  0  0  0  0  0  0  0  0
   14.4761   36.3273   33.5725 C   0  0  0  0  0  0  0  0  0  0  0  0
   13.1179   37.6316   34.5684 C   0  0  0  0  0  0  0  0  0  0  0  0
   15.2063   35.6139   32.6737 N   0  0  0  0  0  0  0  0  0  0  0  0
   14.6734   36.2277   34.9180 C   0  0  0  0  0  0  0  0  0  0  0  0
   13.8225   37.0459   35.5779 N   0  0  0  0  0  0  0  0  0  0  0  0
   16.1636   34.7594   33.1546 C   0  0  0  0  0  0  0  0  0  0  0  0
   15.6515   35.3494   35.4129 C   0  0  0  0  0  0  0  0  0  0  0  0
   16.3791   34.6311   34.5041 N   0  0  0  0  0  0  0  0  0  0  0  0
   15.9001   35.1935   36.8088 N   0  0  0  0  0  0  0  0  0  0  0  0
    9.7844   45.0061   32.1584 H   0  0  0  0  0  0  0  0  0  0  0  0
   10.8114   46.9718   33.0958 H   0  0  0  0  0  0  0  0  0  0  0  0
   11.8837   45.7118   32.9006 H   0  0  0  0  0  0  0  0  0  0  0  0
    8.4244   46.6580   33.4462 H   0  0  0  0  0  0  0  0  0  0  0  0
    7.8083   44.9939   33.6414 H   0  0  0  0  0  0  0  0  0  0  0  0
    8.6423   47.2512   37.7611 H   0  0  0  0  0  0  0  0  0  0  0  0
   10.0704   46.1776   37.7917 H   0  0  0  0  0  0  0  0  0  0  0  0
    9.0660   49.3137   38.7413 H   0  0  0  0  0  0  0  0  0  0  0  0
   13.6382   49.5711   36.8435 H   0  0  0  0  0  0  0  0  0  0  0  0
   10.4561   51.3015   39.1188 H   0  0  0  0  0  0  0  0  0  0  0  0
   12.7321   51.4373   38.1609 H   0  0  0  0  0  0  0  0  0  0  0  0
   11.4016   41.5437   31.4731 H   0  0  0  0  0  0  0  0  0  0  0  0
    9.8319   40.7398   31.7546 H   0  0  0  0  0  0  0  0  0  0  0  0
   11.6983   39.5043   30.3470 H   0  0  0  0  0  0  0  0  0  0  0  0
   10.1090   38.2632   32.6649 H   0  0  0  0  0  0  0  0  0  0  0  0
   13.6656   37.4540   31.2207 H   0  0  0  0  0  0  0  0  0  0  0  0
    8.8966   38.6901   30.8851 H   0  0  0  0  0  0  0  0  0  0  0  0
   11.2846   36.3060   32.5175 H   0  0  0  0  0  0  0  0  0  0  0  0
   10.8523   35.7094   30.4590 H   0  0  0  0  0  0  0  0  0  0  0  0
   12.3353   38.3588   34.7439 H   0  0  0  0  0  0  0  0  0  0  0  0
   16.7570   34.1788   32.4619 H   0  0  0  0  0  0  0  0  0  0  0  0
   16.6360   34.5317   37.1414 H   0  0  0  0  0  0  0  0  0  0  0  0
   15.3529   35.7359   37.5136 H   0  0  0  0  0  0  0  0  0  0  0  0
  1  2  2  0
  1  3  1  0
  3  4  1  0
  4  5  1  0
  6  1  1  0
  7  6  1  0
  6  8  1  0
  8  9  1  0
  9 10  1  0
  9 11  2  0
 10 12  1  0
 12 13  1  0
 13 14  2  0
 15 13  1  0
 14 16  1  0
 14 17  1  0
 18 15  2  0
 16 19  1  0
 16 20  2  0
 17 21  2  0
 21 18  1  0
  4 22  2  0
  4 23  1  0
 24 23  1  0
 24 25  1  0
 25 26  1  0
 25 27  1  0
 26 28  1  0
 27 29  1  0
 27 30  1  0
 30 28  1  0
 28 31  1  0
 30 32  1  0
 33 31  1  0
 34 31  1  0
 35 33  2  0
 33 36  1  0
 37 34  2  0
 38 35  1  0
 36 39  2  0
 36 37  1  0
 40 38  2  0
 40 39  1  0
 39 41  1  0
  6 42  1  6
  7 43  1  0
  7 44  1  0
  8 45  1  0
  8 46  1  0
 12 47  1  0
 12 48  1  0
 15 49  1  0
 17 50  1  0
 18 51  1  0
 21 52  1  0
 24 53  1  0
 24 54  1  0
 25 55  1  0
 27 56  1  0
 28 57  1  0
 29 58  1  0
 30 59  1  0
 32 60  1  0
 34 61  1  0
 38 62  1  0
 41 63  1  0
 41 64  1  0
M  CHG  3   5  -1  16   1  19  -1
M  END
>  <EmbedRMS>  (139) 
0.08942221375096629

$$$$

     RDKit          3D

 64 67  0  0  0  0  0  0  0  0999 V2000
   10.2813   43.7753   33.8095 C   0  0  0  0  0  0  0  0  0  0  0  0
   11.4043   43.5915   34.3654 O   0  0  0  0  0  0  0  0  0  0  0  0
    9.3697   42.7293   33.6962 O   0  0  0  0  0  0  0  0  0  0  0  0
    9.8868   41.2336   34.2836 P   0  0  0  0  0  5  0  0  0  0  0  0
   10.3655   41.4703   35.8745 O   0  0  0  0  0  1  0  0  0  0  0  0
    9.9460   45.1212   33.2605 C   0  0  2  0  0  0  0  0  0  0  0  0
   11.0799   46.0241   33.4672 N   0  0  0  0  0  0  0  0  0  0  0  0
    8.6934   45.7011   33.9551 C   0  0  0  0  0  0  0  0  0  0  0  0
    7.4185   45.0499   33.4788 C   0  0  0  0  0  0  0  0  0  0  0  0
    6.7786   45.4178   32.2852 O   0  0  0  0  0  0  0  0  0  0  0  0
    6.9167   44.1219   34.1664 O   0  0  0  0  0  0  0  0  0  0  0  0
    7.1366   46.5409   31.4774 C   0  0  0  0  0  0  0  0  0  0  0  0
    6.7394   47.8442   32.1370 C   0  0  0  0  0  0  0  0  0  0  0  0
    7.5500   49.0075   32.0544 C   0  0  0  0  0  0  0  0  0  0  0  0
    5.5272   47.9051   32.8501 C   0  0  0  0  0  0  0  0  0  0  0  0
    8.7483   49.0423   31.2628 N   0  0  0  0  0  4  0  0  0  0  0  0
    7.1678   50.1629   32.7571 C   0  0  0  0  0  0  0  0  0  0  0  0
    5.1545   49.0691   33.5238 C   0  0  0  0  0  0  0  0  0  0  0  0
    9.8278   49.7828   31.6864 O   0  0  0  0  0  1  0  0  0  0  0  0
    8.7457   48.5935   30.0980 O   0  0  0  0  0  0  0  0  0  0  0  0
    5.9790   50.1919   33.4873 C   0  0  0  0  0  0  0  0  0  0  0  0
    8.8090   40.1911   34.2074 O   0  0  0  0  0  0  0  0  0  0  0  0
   11.2393   40.7898   33.3694 O   0  0  0  0  0  0  0  0  0  0  0  0
   10.9197   40.6904   31.9959 C   0  0  0  0  0  0  0  0  0  0  0  0
   11.5178   39.3822   31.4408 C   0  0  0  0  0  0  0  0  0  0  0  0
   12.7498   39.0890   32.0752 O   0  0  0  0  0  0  0  0  0  0  0  0
   10.6037   38.1900   31.6658 C   0  0  0  0  0  0  0  0  0  0  0  0
   12.9401   37.6831   32.0275 C   0  0  0  0  0  0  0  0  0  0  0  0
    9.6377   38.0785   30.6474 O   0  0  0  0  0  0  0  0  0  0  0  0
   11.5803   37.0203   31.6936 C   0  0  0  0  0  0  0  0  0  0  0  0
   13.4902   37.2176   33.3237 N   0  0  0  0  0  0  0  0  0  0  0  0
   11.6117   36.3192   30.4680 O   0  0  0  0  0  0  0  0  0  0  0  0
   14.4759   36.3271   33.5731 C   0  0  0  0  0  0  0  0  0  0  0  0
   13.1175   37.6317   34.5687 C   0  0  0  0  0  0  0  0  0  0  0  0
   15.2064   35.6141   32.6742 N   0  0  0  0  0  0  0  0  0  0  0  0
   14.6729   36.2274   34.9184 C   0  0  0  0  0  0  0  0  0  0  0  0
   13.8221   37.0457   35.5783 N   0  0  0  0  0  0  0  0  0  0  0  0
   16.1637   34.7596   33.1549 C   0  0  0  0  0  0  0  0  0  0  0  0
   15.6514   35.3493   35.4133 C   0  0  0  0  0  0  0  0  0  0  0  0
   16.3791   34.6312   34.5044 N   0  0  0  0  0  0  0  0  0  0  0  0
   15.9001   35.1935   36.8091 N   0  0  0  0  0  0  0  0  0  0  0  0
    9.7627   45.0150   32.1684 H   0  0  0  0  0  0  0  0  0  0  0  0
   11.8885   45.6750   32.9013 H   0  0  0  0  0  0  0  0  0  0  0  0
   10.8416   46.9557   33.0545 H   0  0  0  0  0  0  0  0  0  0  0  0
    8.6279   46.7929   33.7747 H   0  0  0  0  0  0  0  0  0  0  0  0
    8.7851   45.5799   35.0575 H   0  0  0  0  0  0  0  0  0  0  0  0
    6.6002   46.4637   30.5090 H   0  0  0  0  0  0  0  0  0  0  0  0
    8.2218   46.4964   31.2630 H   0  0  0  0  0  0  0  0  0  0  0  0
    4.8740   47.0427   32.8999 H   0  0  0  0  0  0  0  0  0  0  0  0
    7.7803   51.0548   32.7166 H   0  0  0  0  0  0  0  0  0  0  0  0
    4.2263   49.0983   34.0799 H   0  0  0  0  0  0  0  0  0  0  0  0
    5.6898   51.0920   34.0143 H   0  0  0  0  0  0  0  0  0  0  0  0
    9.8318   40.7400   31.7556 H   0  0  0  0  0  0  0  0  0  0  0  0
   11.4010   41.5452   31.4745 H   0  0  0  0  0  0  0  0  0  0  0  0
   11.6992   39.5089   30.3485 H   0  0  0  0  0  0  0  0  0  0  0  0
   10.1132   38.2591   32.6663 H   0  0  0  0  0  0  0  0  0  0  0  0
   13.6801   37.4622   31.2265 H   0  0  0  0  0  0  0  0  0  0  0  0
    8.8956   38.6913   30.8889 H   0  0  0  0  0  0  0  0  0  0  0  0
   11.2829   36.3060   32.4929 H   0  0  0  0  0  0  0  0  0  0  0  0
   11.8859   36.9588   29.7592 H   0  0  0  0  0  0  0  0  0  0  0  0
   12.3360   38.3600   34.7440 H   0  0  0  0  0  0  0  0  0  0  0  0
   16.7573   34.1793   32.4621 H   0  0  0  0  0  0  0  0  0  0  0  0
   16.6362   34.5318   37.1416 H   0  0  0  0  0  0  0  0  0  0  0  0
   15.3528   35.7357   37.5140 H   0  0  0  0  0  0  0  0  0  0  0  0
  1  2  2  0
  1  3  1  0
  3  4  1  0
  4  5  1  0
  6  1  1  0
  7  6  1  0
  6  8  1  0
  8  9  1  0
  9 10  1  0
  9 11  2  0
 10 12  1  0
 12 13  1  0
 13 14  2  0
 15 13  1  0
 14 16  1  0
 14 17  1  0
 18 15  2  0
 16 19  1  0
 16 20  2  0
 17 21  2  0
 21 18  1  0
  4 22  2  0
  4 23  1  0
 24 23  1  0
 24 25  1  0
 25 26  1  0
 25 27  1  0
 26 28  1  0
 27 29  1  0
 27 30  1  0
 30 28  1  0
 28 31  1  0
 30 32  1  0
 33 31  1  0
 34 31  1  0
 35 33  2  0
 33 36  1  0
 37 34  2  0
 38 35  1  0
 36 39  2  0
 36 37  1  0
 40 38  2  0
 40 39  1  0
 39 41  1  0
  6 42  1  6
  7 43  1  0
  7 44  1  0
  8 45  1  0
  8 46  1  0
 12 47  1  0
 12 48  1  0
 15 49  1  0
 17 50  1  0
 18 51  1  0
 21 52  1  0
 24 53  1  0
 24 54  1  0
 25 55  1  0
 27 56  1  0
 28 57  1  0
 29 58  1  0
 30 59  1  0
 32 60  1  0
 34 61  1  0
 38 62  1  0
 41 63  1  0
 41 64  1  0
M  CHG  3   5  -1  16   1  19  -1
M  END
>  <EmbedRMS>  (140) 
0.08866674147831927

$$$$

     RDKit          3D

 64 67  0  0  0  0  0  0  0  0999 V2000
   10.2821   43.7751   33.8088 C   0  0  0  0  0  0  0  0  0  0  0  0
   11.4050   43.5915   34.3648 O   0  0  0  0  0  0  0  0  0  0  0  0
    9.3697   42.7291   33.6968 O   0  0  0  0  0  0  0  0  0  0  0  0
    9.8866   41.2334   34.2834 P   0  0  0  0  0  5  0  0  0  0  0  0
   10.3663   41.4700   35.8740 O   0  0  0  0  0  1  0  0  0  0  0  0
    9.9472   45.1207   33.2572 C   0  0  2  0  0  0  0  0  0  0  0  0
   11.0783   46.0252   33.4700 N   0  0  0  0  0  0  0  0  0  0  0  0
    8.6907   45.6990   33.9411 C   0  0  0  0  0  0  0  0  0  0  0  0
    7.4518   44.9334   33.5874 C   0  0  0  0  0  0  0  0  0  0  0  0
    7.0207   44.8990   32.2568 O   0  0  0  0  0  0  0  0  0  0  0  0
    6.8145   44.3211   34.4876 O   0  0  0  0  0  0  0  0  0  0  0  0
    5.8532   44.1988   31.8314 C   0  0  0  0  0  0  0  0  0  0  0  0
    4.6025   44.8708   32.3502 C   0  0  0  0  0  0  0  0  0  0  0  0
    4.3504   46.2557   32.1553 C   0  0  0  0  0  0  0  0  0  0  0  0
    3.6800   44.1012   33.0827 C   0  0  0  0  0  0  0  0  0  0  0  0
    5.2448   47.0918   31.3984 N   0  0  0  0  0  4  0  0  0  0  0  0
    3.2015   46.8295   32.7306 C   0  0  0  0  0  0  0  0  0  0  0  0
    2.5389   44.6878   33.6310 C   0  0  0  0  0  0  0  0  0  0  0  0
    5.8277   46.6302   30.2414 O   0  0  0  0  0  1  0  0  0  0  0  0
    5.3761   48.2973   31.6958 O   0  0  0  0  0  0  0  0  0  0  0  0
    2.3027   46.0500   33.4596 C   0  0  0  0  0  0  0  0  0  0  0  0
    8.8084   40.1912   34.2081 O   0  0  0  0  0  0  0  0  0  0  0  0
   11.2379   40.7890   33.3678 O   0  0  0  0  0  0  0  0  0  0  0  0
   10.9159   40.6880   31.9947 C   0  0  0  0  0  0  0  0  0  0  0  0
   11.5262   39.3870   31.4362 C   0  0  0  0  0  0  0  0  0  0  0  0
   12.7493   39.0891   32.0816 O   0  0  0  0  0  0  0  0  0  0  0  0
   10.6123   38.1893   31.6460 C   0  0  0  0  0  0  0  0  0  0  0  0
   12.9373   37.6825   32.0300 C   0  0  0  0  0  0  0  0  0  0  0  0
    9.6150   38.0839   30.6538 O   0  0  0  0  0  0  0  0  0  0  0  0
   11.5792   37.0136   31.7013 C   0  0  0  0  0  0  0  0  0  0  0  0
   13.4906   37.2169   33.3242 N   0  0  0  0  0  0  0  0  0  0  0  0
   11.6215   36.3252   30.4725 O   0  0  0  0  0  0  0  0  0  0  0  0
   14.4763   36.3266   33.5731 C   0  0  0  0  0  0  0  0  0  0  0  0
   13.1181   37.6308   34.5694 C   0  0  0  0  0  0  0  0  0  0  0  0
   15.2066   35.6137   32.6740 N   0  0  0  0  0  0  0  0  0  0  0  0
   14.6735   36.2270   34.9185 C   0  0  0  0  0  0  0  0  0  0  0  0
   13.8229   37.0451   35.5787 N   0  0  0  0  0  0  0  0  0  0  0  0
   16.1639   34.7593   33.1547 C   0  0  0  0  0  0  0  0  0  0  0  0
   15.6519   35.3489   35.4132 C   0  0  0  0  0  0  0  0  0  0  0  0
   16.3794   34.6308   34.5042 N   0  0  0  0  0  0  0  0  0  0  0  0
   15.9006   35.1931   36.8090 N   0  0  0  0  0  0  0  0  0  0  0  0
    9.7623   45.0215   32.1633 H   0  0  0  0  0  0  0  0  0  0  0  0
   11.8856   45.6856   32.8966 H   0  0  0  0  0  0  0  0  0  0  0  0
   10.8348   46.9621   33.0730 H   0  0  0  0  0  0  0  0  0  0  0  0
    8.8321   45.7121   35.0449 H   0  0  0  0  0  0  0  0  0  0  0  0
    8.5381   46.7495   33.6122 H   0  0  0  0  0  0  0  0  0  0  0  0
    5.8234   44.1735   30.7231 H   0  0  0  0  0  0  0  0  0  0  0  0
    5.9216   43.1410   32.1687 H   0  0  0  0  0  0  0  0  0  0  0  0
    3.8488   43.0433   33.2422 H   0  0  0  0  0  0  0  0  0  0  0  0
    2.9921   47.8837   32.5996 H   0  0  0  0  0  0  0  0  0  0  0  0
    1.8395   44.0852   34.1961 H   0  0  0  0  0  0  0  0  0  0  0  0
    1.4189   46.5034   33.8897 H   0  0  0  0  0  0  0  0  0  0  0  0
   11.3833   41.5502   31.4728 H   0  0  0  0  0  0  0  0  0  0  0  0
    9.8257   40.7182   31.7578 H   0  0  0  0  0  0  0  0  0  0  0  0
   11.7292   39.5285   30.3500 H   0  0  0  0  0  0  0  0  0  0  0  0
   10.1141   38.2720   32.6379 H   0  0  0  0  0  0  0  0  0  0  0  0
   13.6725   37.4633   31.2239 H   0  0  0  0  0  0  0  0  0  0  0  0
   10.0534   38.1085   29.7638 H   0  0  0  0  0  0  0  0  0  0  0  0
   11.2645   36.3134   32.5107 H   0  0  0  0  0  0  0  0  0  0  0  0
   12.1547   35.5031   30.6316 H   0  0  0  0  0  0  0  0  0  0  0  0
   12.3361   38.3586   34.7450 H   0  0  0  0  0  0  0  0  0  0  0  0
   16.7574   34.1788   32.4619 H   0  0  0  0  0  0  0  0  0  0  0  0
   16.6366   34.5314   37.1415 H   0  0  0  0  0  0  0  0  0  0  0  0
   15.3533   35.7353   37.5139 H   0  0  0  0  0  0  0  0  0  0  0  0
  1  2  2  0
  1  3  1  0
  3  4  1  0
  4  5  1  0
  6  1  1  0
  7  6  1  0
  6  8  1  0
  8  9  1  0
  9 10  1  0
  9 11  2  0
 10 12  1  0
 12 13  1  0
 13 14  2  0
 15 13  1  0
 14 16  1  0
 14 17  1  0
 18 15  2  0
 16 19  1  0
 16 20  2  0
 17 21  2  0
 21 18  1  0
  4 22  2  0
  4 23  1  0
 24 23  1  0
 24 25  1  0
 25 26  1  0
 25 27  1  0
 26 28  1  0
 27 29  1  0
 27 30  1  0
 30 28  1  0
 28 31  1  0
 30 32  1  0
 33 31  1  0
 34 31  1  0
 35 33  2  0
 33 36  1  0
 37 34  2  0
 38 35  1  0
 36 39  2  0
 36 37  1  0
 40 38  2  0
 40 39  1  0
 39 41  1  0
  6 42  1  6
  7 43  1  0
  7 44  1  0
  8 45  1  0
  8 46  1  0
 12 47  1  0
 12 48  1  0
 15 49  1  0
 17 50  1  0
 18 51  1  0
 21 52  1  0
 24 53  1  0
 24 54  1  0
 25 55  1  0
 27 56  1  0
 28 57  1  0
 29 58  1  0
 30 59  1  0
 32 60  1  0
 34 61  1  0
 38 62  1  0
 41 63  1  0
 41 64  1  0
M  CHG  3   5  -1  16   1  19  -1
M  END
>  <EmbedRMS>  (141) 
0.08823422398627571

$$$$

     RDKit          3D

 64 67  0  0  0  0  0  0  0  0999 V2000
   10.2842   43.7744   33.8071 C   0  0  0  0  0  0  0  0  0  0  0  0
   11.4068   43.5904   34.3635 O   0  0  0  0  0  0  0  0  0  0  0  0
    9.3677   42.7312   33.6993 O   0  0  0  0  0  0  0  0  0  0  0  0
    9.8859   41.2343   34.2835 P   0  0  0  0  0  5  0  0  0  0  0  0
   10.3666   41.4695   35.8740 O   0  0  0  0  0  1  0  0  0  0  0  0
    9.9496   45.1159   33.2538 C   0  0  2  0  0  0  0  0  0  0  0  0
   11.0752   46.0280   33.4738 N   0  0  0  0  0  0  0  0  0  0  0  0
    8.6758   45.6525   33.9369 C   0  0  0  0  0  0  0  0  0  0  0  0
    8.1886   46.9071   33.2808 C   0  0  0  0  0  0  0  0  0  0  0  0
    7.6154   46.8378   32.0058 O   0  0  0  0  0  0  0  0  0  0  0  0
    8.3280   48.0163   33.8653 O   0  0  0  0  0  0  0  0  0  0  0  0
    7.2466   47.9938   31.2543 C   0  0  0  0  0  0  0  0  0  0  0  0
    8.4671   48.7550   30.7810 C   0  0  0  0  0  0  0  0  0  0  0  0
    8.4751   50.1708   30.6823 C   0  0  0  0  0  0  0  0  0  0  0  0
    9.6228   48.0378   30.4152 C   0  0  0  0  0  0  0  0  0  0  0  0
    7.2924   50.9500   30.9277 N   0  0  0  0  0  4  0  0  0  0  0  0
    9.6630   50.8274   30.3129 C   0  0  0  0  0  0  0  0  0  0  0  0
   10.7864   48.7069   30.0345 C   0  0  0  0  0  0  0  0  0  0  0  0
    6.0835   50.5570   30.4013 O   0  0  0  0  0  1  0  0  0  0  0  0
    7.3857   52.0852   31.4389 O   0  0  0  0  0  0  0  0  0  0  0  0
   10.8103   50.0994   29.9954 C   0  0  0  0  0  0  0  0  0  0  0  0
    8.8082   40.1915   34.2082 O   0  0  0  0  0  0  0  0  0  0  0  0
   11.2372   40.7910   33.3668 O   0  0  0  0  0  0  0  0  0  0  0  0
   10.9138   40.6861   31.9943 C   0  0  0  0  0  0  0  0  0  0  0  0
   11.5171   39.3797   31.4408 C   0  0  0  0  0  0  0  0  0  0  0  0
   12.7488   39.0886   32.0761 O   0  0  0  0  0  0  0  0  0  0  0  0
   10.6052   38.1877   31.6659 C   0  0  0  0  0  0  0  0  0  0  0  0
   12.9412   37.6828   32.0278 C   0  0  0  0  0  0  0  0  0  0  0  0
    9.6358   38.0930   30.6503 O   0  0  0  0  0  0  0  0  0  0  0  0
   11.5827   37.0179   31.6936 C   0  0  0  0  0  0  0  0  0  0  0  0
   13.4909   37.2176   33.3239 N   0  0  0  0  0  0  0  0  0  0  0  0
   11.6140   36.3180   30.4675 O   0  0  0  0  0  0  0  0  0  0  0  0
   14.4763   36.3270   33.5733 C   0  0  0  0  0  0  0  0  0  0  0  0
   13.1179   37.6316   34.5689 C   0  0  0  0  0  0  0  0  0  0  0  0
   15.2067   35.6140   32.6743 N   0  0  0  0  0  0  0  0  0  0  0  0
   14.6731   36.2272   34.9186 C   0  0  0  0  0  0  0  0  0  0  0  0
   13.8223   37.0456   35.5785 N   0  0  0  0  0  0  0  0  0  0  0  0
   16.1639   34.7595   33.1551 C   0  0  0  0  0  0  0  0  0  0  0  0
   15.6515   35.3491   35.4134 C   0  0  0  0  0  0  0  0  0  0  0  0
   16.3793   34.6310   34.5045 N   0  0  0  0  0  0  0  0  0  0  0  0
   15.9002   35.1933   36.8093 N   0  0  0  0  0  0  0  0  0  0  0  0
    9.7673   45.0023   32.1611 H   0  0  0  0  0  0  0  0  0  0  0  0
   10.8436   46.9582   33.0567 H   0  0  0  0  0  0  0  0  0  0  0  0
   11.8933   45.6815   32.9202 H   0  0  0  0  0  0  0  0  0  0  0  0
    8.8746   45.8399   35.0156 H   0  0  0  0  0  0  0  0  0  0  0  0
    7.8614   44.8989   33.8686 H   0  0  0  0  0  0  0  0  0  0  0  0
    6.5909   48.6266   31.8886 H   0  0  0  0  0  0  0  0  0  0  0  0
    6.6641   47.6708   30.3664 H   0  0  0  0  0  0  0  0  0  0  0  0
    9.6313   46.9554   30.4407 H   0  0  0  0  0  0  0  0  0  0  0  0
    9.6921   51.9076   30.2437 H   0  0  0  0  0  0  0  0  0  0  0  0
   11.6729   48.1435   29.7728 H   0  0  0  0  0  0  0  0  0  0  0  0
   11.7150   50.6163   29.7023 H   0  0  0  0  0  0  0  0  0  0  0  0
   11.3858   41.5433   31.4683 H   0  0  0  0  0  0  0  0  0  0  0  0
    9.8237   40.7211   31.7578 H   0  0  0  0  0  0  0  0  0  0  0  0
   11.6995   39.5063   30.3486 H   0  0  0  0  0  0  0  0  0  0  0  0
   10.1121   38.2724   32.6632 H   0  0  0  0  0  0  0  0  0  0  0  0
   13.6816   37.4631   31.2269 H   0  0  0  0  0  0  0  0  0  0  0  0
    9.0037   37.3828   30.9349 H   0  0  0  0  0  0  0  0  0  0  0  0
   11.2846   36.3041   32.4928 H   0  0  0  0  0  0  0  0  0  0  0  0
   11.8849   36.9590   29.7588 H   0  0  0  0  0  0  0  0  0  0  0  0
   12.3363   38.3599   34.7441 H   0  0  0  0  0  0  0  0  0  0  0  0
   16.7574   34.1790   32.4623 H   0  0  0  0  0  0  0  0  0  0  0  0
   15.3529   35.7356   37.5141 H   0  0  0  0  0  0  0  0  0  0  0  0
   16.6363   34.5317   37.1418 H   0  0  0  0  0  0  0  0  0  0  0  0
  1  2  2  0
  1  3  1  0
  3  4  1  0
  4  5  1  0
  6  1  1  0
  7  6  1  0
  6  8  1  0
  8  9  1  0
  9 10  1  0
  9 11  2  0
 10 12  1  0
 12 13  1  0
 13 14  2  0
 15 13  1  0
 14 16  1  0
 14 17  1  0
 18 15  2  0
 16 19  1  0
 16 20  2  0
 17 21  2  0
 21 18  1  0
  4 22  2  0
  4 23  1  0
 24 23  1  0
 24 25  1  0
 25 26  1  0
 25 27  1  0
 26 28  1  0
 27 29  1  0
 27 30  1  0
 30 28  1  0
 28 31  1  0
 30 32  1  0
 33 31  1  0
 34 31  1  0
 35 33  2  0
 33 36  1  0
 37 34  2  0
 38 35  1  0
 36 39  2  0
 36 37  1  0
 40 38  2  0
 40 39  1  0
 39 41  1  0
  6 42  1  6
  7 43  1  0
  7 44  1  0
  8 45  1  0
  8 46  1  0
 12 47  1  0
 12 48  1  0
 15 49  1  0
 17 50  1  0
 18 51  1  0
 21 52  1  0
 24 53  1  0
 24 54  1  0
 25 55  1  0
 27 56  1  0
 28 57  1  0
 29 58  1  0
 30 59  1  0
 32 60  1  0
 34 61  1  0
 38 62  1  0
 41 63  1  0
 41 64  1  0
M  CHG  3   5  -1  16   1  19  -1
M  END
>  <EmbedRMS>  (142) 
0.08789583200441355

$$$$

     RDKit          3D

 64 67  0  0  0  0  0  0  0  0999 V2000
   10.2861   43.7711   33.8106 C   0  0  0  0  0  0  0  0  0  0  0  0
   11.4100   43.5818   34.3621 O   0  0  0  0  0  0  0  0  0  0  0  0
    9.3665   42.7311   33.7026 O   0  0  0  0  0  0  0  0  0  0  0  0
    9.8845   41.2331   34.2841 P   0  0  0  0  0  5  0  0  0  0  0  0
   10.3659   41.4674   35.8746 O   0  0  0  0  0  1  0  0  0  0  0  0
    9.9615   45.1116   33.2461 C   0  0  2  0  0  0  0  0  0  0  0  0
   11.0650   46.0483   33.4746 N   0  0  0  0  0  0  0  0  0  0  0  0
    8.6638   45.6575   33.8655 C   0  0  0  0  0  0  0  0  0  0  0  0
    8.2778   46.9599   33.2362 C   0  0  0  0  0  0  0  0  0  0  0  0
    7.8411   46.9738   31.9094 O   0  0  0  0  0  0  0  0  0  0  0  0
    8.3801   48.0320   33.8929 O   0  0  0  0  0  0  0  0  0  0  0  0
    7.5406   48.1758   31.2080 C   0  0  0  0  0  0  0  0  0  0  0  0
    7.2277   47.8559   29.7677 C   0  0  0  0  0  0  0  0  0  0  0  0
    8.1255   47.1212   28.9440 C   0  0  0  0  0  0  0  0  0  0  0  0
    5.9919   48.2698   29.2368 C   0  0  0  0  0  0  0  0  0  0  0  0
    9.4120   46.6798   29.4167 N   0  0  0  0  0  4  0  0  0  0  0  0
    7.7392   46.7974   27.6312 C   0  0  0  0  0  0  0  0  0  0  0  0
    5.6370   47.9514   27.9255 C   0  0  0  0  0  0  0  0  0  0  0  0
    9.9694   45.5266   28.9139 O   0  0  0  0  0  1  0  0  0  0  0  0
   10.1056   47.4071   30.1564 O   0  0  0  0  0  0  0  0  0  0  0  0
    6.5066   47.2127   27.1261 C   0  0  0  0  0  0  0  0  0  0  0  0
    8.8069   40.1905   34.2081 O   0  0  0  0  0  0  0  0  0  0  0  0
   11.2363   40.7908   33.3670 O   0  0  0  0  0  0  0  0  0  0  0  0
   10.9132   40.6861   31.9944 C   0  0  0  0  0  0  0  0  0  0  0  0
   11.5168   39.3798   31.4408 C   0  0  0  0  0  0  0  0  0  0  0  0
   12.7486   39.0887   32.0763 O   0  0  0  0  0  0  0  0  0  0  0  0
   10.6051   38.1877   31.6659 C   0  0  0  0  0  0  0  0  0  0  0  0
   12.9411   37.6829   32.0278 C   0  0  0  0  0  0  0  0  0  0  0  0
    9.6358   38.0930   30.6502 O   0  0  0  0  0  0  0  0  0  0  0  0
   11.5827   37.0180   31.6936 C   0  0  0  0  0  0  0  0  0  0  0  0
   13.4909   37.2177   33.3239 N   0  0  0  0  0  0  0  0  0  0  0  0
   11.6141   36.3180   30.4675 O   0  0  0  0  0  0  0  0  0  0  0  0
   14.4762   36.3270   33.5733 C   0  0  0  0  0  0  0  0  0  0  0  0
   13.1179   37.6317   34.5689 C   0  0  0  0  0  0  0  0  0  0  0  0
   15.2067   35.6140   32.6743 N   0  0  0  0  0  0  0  0  0  0  0  0
   14.6731   36.2273   34.9186 C   0  0  0  0  0  0  0  0  0  0  0  0
   13.8223   37.0456   35.5785 N   0  0  0  0  0  0  0  0  0  0  0  0
   16.1639   34.7595   33.1550 C   0  0  0  0  0  0  0  0  0  0  0  0
   15.6515   35.3491   35.4134 C   0  0  0  0  0  0  0  0  0  0  0  0
   16.3792   34.6310   34.5045 N   0  0  0  0  0  0  0  0  0  0  0  0
   15.9002   35.1933   36.8092 N   0  0  0  0  0  0  0  0  0  0  0  0
    9.8149   44.9913   32.1496 H   0  0  0  0  0  0  0  0  0  0  0  0
   11.2743   46.1183   34.4980 H   0  0  0  0  0  0  0  0  0  0  0  0
   11.9218   45.7037   32.9822 H   0  0  0  0  0  0  0  0  0  0  0  0
    8.7895   45.7878   34.9634 H   0  0  0  0  0  0  0  0  0  0  0  0
    7.8341   44.9362   33.7007 H   0  0  0  0  0  0  0  0  0  0  0  0
    8.4016   48.8759   31.2528 H   0  0  0  0  0  0  0  0  0  0  0  0
    6.6802   48.6748   31.7056 H   0  0  0  0  0  0  0  0  0  0  0  0
    5.2927   48.8338   29.8419 H   0  0  0  0  0  0  0  0  0  0  0  0
    8.4038   46.2344   26.9882 H   0  0  0  0  0  0  0  0  0  0  0  0
    4.6820   48.2732   27.5304 H   0  0  0  0  0  0  0  0  0  0  0  0
    6.2266   46.9634   26.1106 H   0  0  0  0  0  0  0  0  0  0  0  0
   11.3852   41.5435   31.4687 H   0  0  0  0  0  0  0  0  0  0  0  0
    9.8232   40.7211   31.7578 H   0  0  0  0  0  0  0  0  0  0  0  0
   11.6993   39.5066   30.3487 H   0  0  0  0  0  0  0  0  0  0  0  0
   10.1120   38.2722   32.6631 H   0  0  0  0  0  0  0  0  0  0  0  0
   13.6816   37.4634   31.2269 H   0  0  0  0  0  0  0  0  0  0  0  0
    9.0037   37.3828   30.9348 H   0  0  0  0  0  0  0  0  0  0  0  0
   11.2846   36.3041   32.4928 H   0  0  0  0  0  0  0  0  0  0  0  0
   11.8850   36.9590   29.7588 H   0  0  0  0  0  0  0  0  0  0  0  0
   12.3363   38.3599   34.7441 H   0  0  0  0  0  0  0  0  0  0  0  0
   16.7574   34.1790   32.4623 H   0  0  0  0  0  0  0  0  0  0  0  0
   15.3529   35.7355   37.5141 H   0  0  0  0  0  0  0  0  0  0  0  0
   16.6363   34.5317   37.1418 H   0  0  0  0  0  0  0  0  0  0  0  0
  1  2  2  0
  1  3  1  0
  3  4  1  0
  4  5  1  0
  6  1  1  0
  7  6  1  0
  6  8  1  0
  8  9  1  0
  9 10  1  0
  9 11  2  0
 10 12  1  0
 12 13  1  0
 13 14  2  0
 15 13  1  0
 14 16  1  0
 14 17  1  0
 18 15  2  0
 16 19  1  0
 16 20  2  0
 17 21  2  0
 21 18  1  0
  4 22  2  0
  4 23  1  0
 24 23  1  0
 24 25  1  0
 25 26  1  0
 25 27  1  0
 26 28  1  0
 27 29  1  0
 27 30  1  0
 30 28  1  0
 28 31  1  0
 30 32  1  0
 33 31  1  0
 34 31  1  0
 35 33  2  0
 33 36  1  0
 37 34  2  0
 38 35  1  0
 36 39  2  0
 36 37  1  0
 40 38  2  0
 40 39  1  0
 39 41  1  0
  6 42  1  6
  7 43  1  0
  7 44  1  0
  8 45  1  0
  8 46  1  0
 12 47  1  0
 12 48  1  0
 15 49  1  0
 17 50  1  0
 18 51  1  0
 21 52  1  0
 24 53  1  0
 24 54  1  0
 25 55  1  0
 27 56  1  0
 28 57  1  0
 29 58  1  0
 30 59  1  0
 32 60  1  0
 34 61  1  0
 38 62  1  0
 41 63  1  0
 41 64  1  0
M  CHG  3   5  -1  16   1  19  -1
M  END
>  <EmbedRMS>  (143) 
0.08834956898312919

$$$$

     RDKit          3D

 64 67  0  0  0  0  0  0  0  0999 V2000
   10.2844   43.7741   33.8067 C   0  0  0  0  0  0  0  0  0  0  0  0
   11.4068   43.5901   34.3635 O   0  0  0  0  0  0  0  0  0  0  0  0
    9.3678   42.7311   33.6989 O   0  0  0  0  0  0  0  0  0  0  0  0
    9.8856   41.2344   34.2840 P   0  0  0  0  0  5  0  0  0  0  0  0
   10.3659   41.4699   35.8745 O   0  0  0  0  0  1  0  0  0  0  0  0
    9.9491   45.1165   33.2552 C   0  0  2  0  0  0  0  0  0  0  0  0
   11.0755   46.0286   33.4731 N   0  0  0  0  0  0  0  0  0  0  0  0
    8.6774   45.6519   33.9433 C   0  0  0  0  0  0  0  0  0  0  0  0
    8.1968   46.9166   33.3030 C   0  0  0  0  0  0  0  0  0  0  0  0
    8.4992   48.1453   33.8994 O   0  0  0  0  0  0  0  0  0  0  0  0
    7.5561   46.8644   32.2180 O   0  0  0  0  0  0  0  0  0  0  0  0
    8.2713   49.4037   33.2690 C   0  0  0  0  0  0  0  0  0  0  0  0
    9.2750   49.6285   32.1626 C   0  0  0  0  0  0  0  0  0  0  0  0
   10.6128   50.0373   32.4208 C   0  0  0  0  0  0  0  0  0  0  0  0
    8.8631   49.4275   30.8324 C   0  0  0  0  0  0  0  0  0  0  0  0
   11.1069   50.2506   33.7566 N   0  0  0  0  0  4  0  0  0  0  0  0
   11.4796   50.2603   31.3359 C   0  0  0  0  0  0  0  0  0  0  0  0
    9.7453   49.6399   29.7729 C   0  0  0  0  0  0  0  0  0  0  0  0
   12.1123   51.1637   33.9779 O   0  0  0  0  0  1  0  0  0  0  0  0
   10.7591   49.5059   34.6952 O   0  0  0  0  0  0  0  0  0  0  0  0
   11.0497   50.0590   30.0238 C   0  0  0  0  0  0  0  0  0  0  0  0
    8.8081   40.1914   34.2083 O   0  0  0  0  0  0  0  0  0  0  0  0
   11.2373   40.7904   33.3686 O   0  0  0  0  0  0  0  0  0  0  0  0
   10.9158   40.6897   31.9956 C   0  0  0  0  0  0  0  0  0  0  0  0
   11.5271   39.3897   31.4372 C   0  0  0  0  0  0  0  0  0  0  0  0
   12.7508   39.0915   32.0837 O   0  0  0  0  0  0  0  0  0  0  0  0
   10.6122   38.1915   31.6452 C   0  0  0  0  0  0  0  0  0  0  0  0
   12.9429   37.6852   32.0295 C   0  0  0  0  0  0  0  0  0  0  0  0
    9.6070   38.0858   30.6603 O   0  0  0  0  0  0  0  0  0  0  0  0
   11.5845   37.0185   31.6879 C   0  0  0  0  0  0  0  0  0  0  0  0
   13.4899   37.2163   33.3250 N   0  0  0  0  0  0  0  0  0  0  0  0
   11.6201   36.3062   30.4693 O   0  0  0  0  0  0  0  0  0  0  0  0
   14.4759   36.3263   33.5739 C   0  0  0  0  0  0  0  0  0  0  0  0
   13.1176   37.6307   34.5699 C   0  0  0  0  0  0  0  0  0  0  0  0
   15.2065   35.6139   32.6746 N   0  0  0  0  0  0  0  0  0  0  0  0
   14.6731   36.2267   34.9191 C   0  0  0  0  0  0  0  0  0  0  0  0
   13.8224   37.0450   35.5792 N   0  0  0  0  0  0  0  0  0  0  0  0
   16.1640   34.7595   33.1551 C   0  0  0  0  0  0  0  0  0  0  0  0
   15.6518   35.3489   35.4136 C   0  0  0  0  0  0  0  0  0  0  0  0
   16.3795   34.6310   34.5046 N   0  0  0  0  0  0  0  0  0  0  0  0
   15.9006   35.1931   36.8094 N   0  0  0  0  0  0  0  0  0  0  0  0
    9.7629   45.0058   32.1627 H   0  0  0  0  0  0  0  0  0  0  0  0
   10.8504   46.9517   33.0375 H   0  0  0  0  0  0  0  0  0  0  0  0
   11.8984   45.6726   32.9329 H   0  0  0  0  0  0  0  0  0  0  0  0
    8.8804   45.8373   35.0210 H   0  0  0  0  0  0  0  0  0  0  0  0
    7.8612   44.8991   33.8777 H   0  0  0  0  0  0  0  0  0  0  0  0
    8.3634   50.2111   34.0251 H   0  0  0  0  0  0  0  0  0  0  0  0
    7.2271   49.4519   32.8885 H   0  0  0  0  0  0  0  0  0  0  0  0
    7.8508   49.1123   30.6116 H   0  0  0  0  0  0  0  0  0  0  0  0
   12.5011   50.5755   31.5068 H   0  0  0  0  0  0  0  0  0  0  0  0
    9.4145   49.4836   28.7542 H   0  0  0  0  0  0  0  0  0  0  0  0
   11.7313   50.2262   29.1998 H   0  0  0  0  0  0  0  0  0  0  0  0
   11.3828   41.5525   31.4742 H   0  0  0  0  0  0  0  0  0  0  0  0
    9.8256   40.7191   31.7584 H   0  0  0  0  0  0  0  0  0  0  0  0
   11.7320   39.5336   30.3518 H   0  0  0  0  0  0  0  0  0  0  0  0
   10.1215   38.2683   32.6412 H   0  0  0  0  0  0  0  0  0  0  0  0
   13.6882   37.4706   31.2319 H   0  0  0  0  0  0  0  0  0  0  0  0
   10.0256   38.1750   29.7656 H   0  0  0  0  0  0  0  0  0  0  0  0
   11.2795   36.3123   32.4915 H   0  0  0  0  0  0  0  0  0  0  0  0
   11.9872   36.9098   29.7715 H   0  0  0  0  0  0  0  0  0  0  0  0
   12.3365   38.3595   34.7453 H   0  0  0  0  0  0  0  0  0  0  0  0
   16.7576   34.1794   32.4622 H   0  0  0  0  0  0  0  0  0  0  0  0
   16.6368   34.5316   37.1418 H   0  0  0  0  0  0  0  0  0  0  0  0
   15.3532   35.7351   37.5144 H   0  0  0  0  0  0  0  0  0  0  0  0
  1  2  2  0
  1  3  1  0
  3  4  1  0
  4  5  1  0
  6  1  1  0
  7  6  1  0
  6  8  1  0
  8  9  1  0
  9 10  1  0
  9 11  2  0
 10 12  1  0
 12 13  1  0
 13 14  2  0
 15 13  1  0
 14 16  1  0
 14 17  1  0
 18 15  2  0
 16 19  1  0
 16 20  2  0
 17 21  2  0
 21 18  1  0
  4 22  2  0
  4 23  1  0
 24 23  1  0
 24 25  1  0
 25 26  1  0
 25 27  1  0
 26 28  1  0
 27 29  1  0
 27 30  1  0
 30 28  1  0
 28 31  1  0
 30 32  1  0
 33 31  1  0
 34 31  1  0
 35 33  2  0
 33 36  1  0
 37 34  2  0
 38 35  1  0
 36 39  2  0
 36 37  1  0
 40 38  2  0
 40 39  1  0
 39 41  1  0
  6 42  1  6
  7 43  1  0
  7 44  1  0
  8 45  1  0
  8 46  1  0
 12 47  1  0
 12 48  1  0
 15 49  1  0
 17 50  1  0
 18 51  1  0
 21 52  1  0
 24 53  1  0
 24 54  1  0
 25 55  1  0
 27 56  1  0
 28 57  1  0
 29 58  1  0
 30 59  1  0
 32 60  1  0
 34 61  1  0
 38 62  1  0
 41 63  1  0
 41 64  1  0
M  CHG  3   5  -1  16   1  19  -1
M  END
>  <EmbedRMS>  (144) 
0.0870879244127605

$$$$

     RDKit          3D

 64 67  0  0  0  0  0  0  0  0999 V2000
   10.2807   43.7749   33.8071 C   0  0  0  0  0  0  0  0  0  0  0  0
   11.4034   43.5907   34.3637 O   0  0  0  0  0  0  0  0  0  0  0  0
    9.3682   42.7291   33.6953 O   0  0  0  0  0  0  0  0  0  0  0  0
    9.8865   41.2337   34.2832 P   0  0  0  0  0  5  0  0  0  0  0  0
   10.3657   41.4711   35.8738 O   0  0  0  0  0  1  0  0  0  0  0  0
    9.9467   45.1228   33.2595 C   0  0  2  0  0  0  0  0  0  0  0  0
   11.0813   46.0236   33.4706 N   0  0  0  0  0  0  0  0  0  0  0  0
    8.6947   45.7009   33.9535 C   0  0  0  0  0  0  0  0  0  0  0  0
    7.4344   45.0428   33.4807 C   0  0  0  0  0  0  0  0  0  0  0  0
    6.8633   44.0183   34.2401 O   0  0  0  0  0  0  0  0  0  0  0  0
    6.9112   45.4039   32.3910 O   0  0  0  0  0  0  0  0  0  0  0  0
    5.6437   43.3808   33.8764 C   0  0  0  0  0  0  0  0  0  0  0  0
    5.3542   42.2645   34.8453 C   0  0  0  0  0  0  0  0  0  0  0  0
    4.7532   42.4939   36.1131 C   0  0  0  0  0  0  0  0  0  0  0  0
    5.6994   40.9523   34.4753 C   0  0  0  0  0  0  0  0  0  0  0  0
    4.4037   43.8144   36.5679 N   0  0  0  0  0  4  0  0  0  0  0  0
    4.4786   41.3948   36.9469 C   0  0  0  0  0  0  0  0  0  0  0  0
    5.4345   39.8789   35.3261 C   0  0  0  0  0  0  0  0  0  0  0  0
    3.3519   43.9840   37.4390 O   0  0  0  0  0  1  0  0  0  0  0  0
    5.1411   44.7909   36.3234 O   0  0  0  0  0  0  0  0  0  0  0  0
    4.8201   40.0990   36.5569 C   0  0  0  0  0  0  0  0  0  0  0  0
    8.8120   40.1884   34.2086 O   0  0  0  0  0  0  0  0  0  0  0  0
   11.2382   40.7902   33.3677 O   0  0  0  0  0  0  0  0  0  0  0  0
   10.9157   40.6882   31.9948 C   0  0  0  0  0  0  0  0  0  0  0  0
   11.5261   39.3870   31.4364 C   0  0  0  0  0  0  0  0  0  0  0  0
   12.7492   39.0892   32.0818 O   0  0  0  0  0  0  0  0  0  0  0  0
   10.6122   38.1894   31.6462 C   0  0  0  0  0  0  0  0  0  0  0  0
   12.9373   37.6826   32.0301 C   0  0  0  0  0  0  0  0  0  0  0  0
    9.6148   38.0840   30.6540 O   0  0  0  0  0  0  0  0  0  0  0  0
   11.5791   37.0136   31.7014 C   0  0  0  0  0  0  0  0  0  0  0  0
   13.4906   37.2169   33.3242 N   0  0  0  0  0  0  0  0  0  0  0  0
   11.6215   36.3253   30.4726 O   0  0  0  0  0  0  0  0  0  0  0  0
   14.4763   36.3266   33.5731 C   0  0  0  0  0  0  0  0  0  0  0  0
   13.1181   37.6308   34.5694 C   0  0  0  0  0  0  0  0  0  0  0  0
   15.2065   35.6137   32.6740 N   0  0  0  0  0  0  0  0  0  0  0  0
   14.6735   36.2270   34.9185 C   0  0  0  0  0  0  0  0  0  0  0  0
   13.8228   37.0451   35.5787 N   0  0  0  0  0  0  0  0  0  0  0  0
   16.1639   34.7593   33.1547 C   0  0  0  0  0  0  0  0  0  0  0  0
   15.6518   35.3489   35.4132 C   0  0  0  0  0  0  0  0  0  0  0  0
   16.3794   34.6308   34.5042 N   0  0  0  0  0  0  0  0  0  0  0  0
   15.9005   35.1931   36.8090 N   0  0  0  0  0  0  0  0  0  0  0  0
    9.7582   45.0281   32.1656 H   0  0  0  0  0  0  0  0  0  0  0  0
   10.8446   46.9585   33.0649 H   0  0  0  0  0  0  0  0  0  0  0  0
   11.8893   45.6768   32.9024 H   0  0  0  0  0  0  0  0  0  0  0  0
    8.6111   46.7882   33.7367 H   0  0  0  0  0  0  0  0  0  0  0  0
    8.7823   45.5938   35.0572 H   0  0  0  0  0  0  0  0  0  0  0  0
    4.8119   44.1175   33.8747 H   0  0  0  0  0  0  0  0  0  0  0  0
    5.7287   42.9831   32.8409 H   0  0  0  0  0  0  0  0  0  0  0  0
    6.1686   40.7567   33.5189 H   0  0  0  0  0  0  0  0  0  0  0  0
    4.0157   41.5434   37.9142 H   0  0  0  0  0  0  0  0  0  0  0  0
    5.7028   38.8736   35.0278 H   0  0  0  0  0  0  0  0  0  0  0  0
    4.6124   39.2642   37.2138 H   0  0  0  0  0  0  0  0  0  0  0  0
    9.8254   40.7180   31.7583 H   0  0  0  0  0  0  0  0  0  0  0  0
   11.3827   41.5502   31.4722 H   0  0  0  0  0  0  0  0  0  0  0  0
   11.7290   39.5285   30.3503 H   0  0  0  0  0  0  0  0  0  0  0  0
   10.1138   38.2720   32.6381 H   0  0  0  0  0  0  0  0  0  0  0  0
   13.6724   37.4634   31.2240 H   0  0  0  0  0  0  0  0  0  0  0  0
   10.0533   38.1086   29.7640 H   0  0  0  0  0  0  0  0  0  0  0  0
   11.2644   36.3135   32.5108 H   0  0  0  0  0  0  0  0  0  0  0  0
   12.1546   35.5031   30.6316 H   0  0  0  0  0  0  0  0  0  0  0  0
   12.3361   38.3585   34.7450 H   0  0  0  0  0  0  0  0  0  0  0  0
   16.7573   34.1789   32.4619 H   0  0  0  0  0  0  0  0  0  0  0  0
   15.3532   35.7353   37.5139 H   0  0  0  0  0  0  0  0  0  0  0  0
   16.6366   34.5314   37.1415 H   0  0  0  0  0  0  0  0  0  0  0  0
  1  2  2  0
  1  3  1  0
  3  4  1  0
  4  5  1  0
  6  1  1  0
  7  6  1  0
  6  8  1  0
  8  9  1  0
  9 10  1  0
  9 11  2  0
 10 12  1  0
 12 13  1  0
 13 14  2  0
 15 13  1  0
 14 16  1  0
 14 17  1  0
 18 15  2  0
 16 19  1  0
 16 20  2  0
 17 21  2  0
 21 18  1  0
  4 22  2  0
  4 23  1  0
 24 23  1  0
 24 25  1  0
 25 26  1  0
 25 27  1  0
 26 28  1  0
 27 29  1  0
 27 30  1  0
 30 28  1  0
 28 31  1  0
 30 32  1  0
 33 31  1  0
 34 31  1  0
 35 33  2  0
 33 36  1  0
 37 34  2  0
 38 35  1  0
 36 39  2  0
 36 37  1  0
 40 38  2  0
 40 39  1  0
 39 41  1  0
  6 42  1  6
  7 43  1  0
  7 44  1  0
  8 45  1  0
  8 46  1  0
 12 47  1  0
 12 48  1  0
 15 49  1  0
 17 50  1  0
 18 51  1  0
 21 52  1  0
 24 53  1  0
 24 54  1  0
 25 55  1  0
 27 56  1  0
 28 57  1  0
 29 58  1  0
 30 59  1  0
 32 60  1  0
 34 61  1  0
 38 62  1  0
 41 63  1  0
 41 64  1  0
M  CHG  3   5  -1  16   1  19  -1
M  END
>  <EmbedRMS>  (145) 
0.08796915781057096

$$$$

     RDKit          3D

 64 67  0  0  0  0  0  0  0  0999 V2000
   10.2872   43.7712   33.8021 C   0  0  0  0  0  0  0  0  0  0  0  0
   11.4095   43.5877   34.3591 O   0  0  0  0  0  0  0  0  0  0  0  0
    9.3678   42.7307   33.6982 O   0  0  0  0  0  0  0  0  0  0  0  0
    9.8849   41.2345   34.2847 P   0  0  0  0  0  5  0  0  0  0  0  0
   10.3649   41.4714   35.8751 O   0  0  0  0  0  1  0  0  0  0  0  0
    9.9515   45.1159   33.2567 C   0  0  2  0  0  0  0  0  0  0  0  0
   11.0710   46.0332   33.4772 N   0  0  0  0  0  0  0  0  0  0  0  0
    8.6637   45.6653   33.9038 C   0  0  0  0  0  0  0  0  0  0  0  0
    8.8017   45.8353   35.3877 C   0  0  0  0  0  0  0  0  0  0  0  0
    8.5604   44.7425   36.2277 O   0  0  0  0  0  0  0  0  0  0  0  0
    9.1703   46.9447   35.8599 O   0  0  0  0  0  0  0  0  0  0  0  0
    8.7139   44.7880   37.6452 C   0  0  0  0  0  0  0  0  0  0  0  0
    7.6461   45.6528   38.2756 C   0  0  0  0  0  0  0  0  0  0  0  0
    7.9404   46.6637   39.2274 C   0  0  0  0  0  0  0  0  0  0  0  0
    6.3018   45.3666   37.9750 C   0  0  0  0  0  0  0  0  0  0  0  0
    9.2902   47.0073   39.5732 N   0  0  0  0  0  4  0  0  0  0  0  0
    6.8841   47.3498   39.8517 C   0  0  0  0  0  0  0  0  0  0  0  0
    5.2670   46.0706   38.5924 C   0  0  0  0  0  0  0  0  0  0  0  0
   10.1738   47.3917   38.5918 O   0  0  0  0  0  1  0  0  0  0  0  0
    9.5926   47.2080   40.7675 O   0  0  0  0  0  0  0  0  0  0  0  0
    5.5575   47.0585   39.5315 C   0  0  0  0  0  0  0  0  0  0  0  0
    8.8074   40.1916   34.2092 O   0  0  0  0  0  0  0  0  0  0  0  0
   11.2367   40.7898   33.3695 O   0  0  0  0  0  0  0  0  0  0  0  0
   10.9156   40.6897   31.9963 C   0  0  0  0  0  0  0  0  0  0  0  0
   11.5270   39.3898   31.4375 C   0  0  0  0  0  0  0  0  0  0  0  0
   12.7508   39.0916   32.0838 O   0  0  0  0  0  0  0  0  0  0  0  0
   10.6122   38.1916   31.6452 C   0  0  0  0  0  0  0  0  0  0  0  0
   12.9429   37.6852   32.0295 C   0  0  0  0  0  0  0  0  0  0  0  0
    9.6070   38.0858   30.6603 O   0  0  0  0  0  0  0  0  0  0  0  0
   11.5845   37.0186   31.6879 C   0  0  0  0  0  0  0  0  0  0  0  0
   13.4899   37.2163   33.3250 N   0  0  0  0  0  0  0  0  0  0  0  0
   11.6202   36.3063   30.4692 O   0  0  0  0  0  0  0  0  0  0  0  0
   14.4759   36.3263   33.5739 C   0  0  0  0  0  0  0  0  0  0  0  0
   13.1175   37.6307   34.5699 C   0  0  0  0  0  0  0  0  0  0  0  0
   15.2065   35.6139   32.6746 N   0  0  0  0  0  0  0  0  0  0  0  0
   14.6731   36.2267   34.9191 C   0  0  0  0  0  0  0  0  0  0  0  0
   13.8224   37.0450   35.5792 N   0  0  0  0  0  0  0  0  0  0  0  0
   16.1640   34.7596   33.1551 C   0  0  0  0  0  0  0  0  0  0  0  0
   15.6517   35.3489   35.4136 C   0  0  0  0  0  0  0  0  0  0  0  0
   16.3795   34.6310   34.5046 N   0  0  0  0  0  0  0  0  0  0  0  0
   15.9006   35.1931   36.8094 N   0  0  0  0  0  0  0  0  0  0  0  0
    9.7748   45.0107   32.1626 H   0  0  0  0  0  0  0  0  0  0  0  0
   10.8085   46.9725   33.0987 H   0  0  0  0  0  0  0  0  0  0  0  0
   11.8796   45.7134   32.8945 H   0  0  0  0  0  0  0  0  0  0  0  0
    8.4047   46.6430   33.4421 H   0  0  0  0  0  0  0  0  0  0  0  0
    7.8162   44.9766   33.6958 H   0  0  0  0  0  0  0  0  0  0  0  0
    9.7442   45.1067   37.8944 H   0  0  0  0  0  0  0  0  0  0  0  0
    8.6008   43.7567   38.0403 H   0  0  0  0  0  0  0  0  0  0  0  0
    6.0542   44.5853   37.2666 H   0  0  0  0  0  0  0  0  0  0  0  0
    7.0921   48.1245   40.5792 H   0  0  0  0  0  0  0  0  0  0  0  0
    4.2372   45.8417   38.3498 H   0  0  0  0  0  0  0  0  0  0  0  0
    4.7533   47.5993   40.0135 H   0  0  0  0  0  0  0  0  0  0  0  0
   11.3828   41.5526   31.4753 H   0  0  0  0  0  0  0  0  0  0  0  0
    9.8255   40.7191   31.7589 H   0  0  0  0  0  0  0  0  0  0  0  0
   11.7318   39.5340   30.3521 H   0  0  0  0  0  0  0  0  0  0  0  0
   10.1214   38.2682   32.6413 H   0  0  0  0  0  0  0  0  0  0  0  0
   13.6882   37.4707   31.2319 H   0  0  0  0  0  0  0  0  0  0  0  0
   10.0257   38.1751   29.7656 H   0  0  0  0  0  0  0  0  0  0  0  0
   11.2796   36.3123   32.4915 H   0  0  0  0  0  0  0  0  0  0  0  0
   11.9872   36.9100   29.7714 H   0  0  0  0  0  0  0  0  0  0  0  0
   12.3365   38.3595   34.7453 H   0  0  0  0  0  0  0  0  0  0  0  0
   16.7577   34.1794   32.4622 H   0  0  0  0  0  0  0  0  0  0  0  0
   16.6368   34.5316   37.1418 H   0  0  0  0  0  0  0  0  0  0  0  0
   15.3532   35.7351   37.5144 H   0  0  0  0  0  0  0  0  0  0  0  0
  1  2  2  0
  1  3  1  0
  3  4  1  0
  4  5  1  0
  6  1  1  0
  7  6  1  0
  6  8  1  0
  8  9  1  0
  9 10  1  0
  9 11  2  0
 10 12  1  0
 12 13  1  0
 13 14  2  0
 15 13  1  0
 14 16  1  0
 14 17  1  0
 18 15  2  0
 16 19  1  0
 16 20  2  0
 17 21  2  0
 21 18  1  0
  4 22  2  0
  4 23  1  0
 24 23  1  0
 24 25  1  0
 25 26  1  0
 25 27  1  0
 26 28  1  0
 27 29  1  0
 27 30  1  0
 30 28  1  0
 28 31  1  0
 30 32  1  0
 33 31  1  0
 34 31  1  0
 35 33  2  0
 33 36  1  0
 37 34  2  0
 38 35  1  0
 36 39  2  0
 36 37  1  0
 40 38  2  0
 40 39  1  0
 39 41  1  0
  6 42  1  6
  7 43  1  0
  7 44  1  0
  8 45  1  0
  8 46  1  0
 12 47  1  0
 12 48  1  0
 15 49  1  0
 17 50  1  0
 18 51  1  0
 21 52  1  0
 24 53  1  0
 24 54  1  0
 25 55  1  0
 27 56  1  0
 28 57  1  0
 29 58  1  0
 30 59  1  0
 32 60  1  0
 34 61  1  0
 38 62  1  0
 41 63  1  0
 41 64  1  0
M  CHG  3   5  -1  16   1  19  -1
M  END
>  <EmbedRMS>  (146) 
0.08702636999572233

$$$$

     RDKit          3D

 64 67  0  0  0  0  0  0  0  0999 V2000
   10.2844   43.7744   33.8069 C   0  0  0  0  0  0  0  0  0  0  0  0
   11.4068   43.5905   34.3636 O   0  0  0  0  0  0  0  0  0  0  0  0
    9.3681   42.7310   33.6988 O   0  0  0  0  0  0  0  0  0  0  0  0
    9.8861   41.2342   34.2839 P   0  0  0  0  0  5  0  0  0  0  0  0
   10.3656   41.4698   35.8747 O   0  0  0  0  0  1  0  0  0  0  0  0
    9.9491   45.1165   33.2547 C   0  0  2  0  0  0  0  0  0  0  0  0
   11.0754   46.0275   33.4734 N   0  0  0  0  0  0  0  0  0  0  0  0
    8.6788   45.6546   33.9428 C   0  0  0  0  0  0  0  0  0  0  0  0
    8.1676   46.8952   33.2767 C   0  0  0  0  0  0  0  0  0  0  0  0
    8.4315   48.1431   33.8483 O   0  0  0  0  0  0  0  0  0  0  0  0
    7.5217   46.8055   32.1969 O   0  0  0  0  0  0  0  0  0  0  0  0
    7.9448   49.3617   33.2944 C   0  0  0  0  0  0  0  0  0  0  0  0
    8.4232   50.5241   34.1281 C   0  0  0  0  0  0  0  0  0  0  0  0
    9.8036   50.7670   34.3576 C   0  0  0  0  0  0  0  0  0  0  0  0
    7.4688   51.3580   34.7402 C   0  0  0  0  0  0  0  0  0  0  0  0
   10.8257   49.9600   33.7474 N   0  0  0  0  0  4  0  0  0  0  0  0
   10.1825   51.8172   35.2134 C   0  0  0  0  0  0  0  0  0  0  0  0
    7.8668   52.4052   35.5725 C   0  0  0  0  0  0  0  0  0  0  0  0
   10.7440   49.6181   32.4179 O   0  0  0  0  0  1  0  0  0  0  0  0
   11.8834   49.7189   34.3653 O   0  0  0  0  0  0  0  0  0  0  0  0
    9.2206   52.6314   35.8124 C   0  0  0  0  0  0  0  0  0  0  0  0
    8.8086   40.1912   34.2076 O   0  0  0  0  0  0  0  0  0  0  0  0
   11.2387   40.7906   33.3693 O   0  0  0  0  0  0  0  0  0  0  0  0
   10.9192   40.6905   31.9959 C   0  0  0  0  0  0  0  0  0  0  0  0
   11.5177   39.3823   31.4410 C   0  0  0  0  0  0  0  0  0  0  0  0
   12.7496   39.0891   32.0754 O   0  0  0  0  0  0  0  0  0  0  0  0
   10.6037   38.1899   31.6659 C   0  0  0  0  0  0  0  0  0  0  0  0
   12.9401   37.6832   32.0276 C   0  0  0  0  0  0  0  0  0  0  0  0
    9.6377   38.0785   30.6474 O   0  0  0  0  0  0  0  0  0  0  0  0
   11.5803   37.0203   31.6937 C   0  0  0  0  0  0  0  0  0  0  0  0
   13.4902   37.2177   33.3237 N   0  0  0  0  0  0  0  0  0  0  0  0
   11.6117   36.3192   30.4680 O   0  0  0  0  0  0  0  0  0  0  0  0
   14.4759   36.3271   33.5731 C   0  0  0  0  0  0  0  0  0  0  0  0
   13.1176   37.6317   34.5688 C   0  0  0  0  0  0  0  0  0  0  0  0
   15.2064   35.6141   32.6742 N   0  0  0  0  0  0  0  0  0  0  0  0
   14.6729   36.2274   34.9184 C   0  0  0  0  0  0  0  0  0  0  0  0
   13.8221   37.0457   35.5783 N   0  0  0  0  0  0  0  0  0  0  0  0
   16.1637   34.7597   33.1549 C   0  0  0  0  0  0  0  0  0  0  0  0
   15.6514   35.3493   35.4133 C   0  0  0  0  0  0  0  0  0  0  0  0
   16.3791   34.6312   34.5044 N   0  0  0  0  0  0  0  0  0  0  0  0
   15.9001   35.1935   36.8091 N   0  0  0  0  0  0  0  0  0  0  0  0
    9.7633   45.0048   32.1622 H   0  0  0  0  0  0  0  0  0  0  0  0
   11.8942   45.6786   32.9224 H   0  0  0  0  0  0  0  0  0  0  0  0
   10.8430   46.9545   33.0513 H   0  0  0  0  0  0  0  0  0  0  0  0
    7.8717   44.8901   33.9082 H   0  0  0  0  0  0  0  0  0  0  0  0
    8.8916   45.8700   35.0130 H   0  0  0  0  0  0  0  0  0  0  0  0
    8.2926   49.4784   32.2471 H   0  0  0  0  0  0  0  0  0  0  0  0
    6.8336   49.3235   33.2661 H   0  0  0  0  0  0  0  0  0  0  0  0
    6.4100   51.1928   34.5831 H   0  0  0  0  0  0  0  0  0  0  0  0
   11.2296   52.0161   35.4042 H   0  0  0  0  0  0  0  0  0  0  0  0
    7.1227   53.0380   36.0388 H   0  0  0  0  0  0  0  0  0  0  0  0
    9.5263   53.4414   36.4621 H   0  0  0  0  0  0  0  0  0  0  0  0
    9.8313   40.7397   31.7557 H   0  0  0  0  0  0  0  0  0  0  0  0
   11.4002   41.5453   31.4742 H   0  0  0  0  0  0  0  0  0  0  0  0
   11.6991   39.5089   30.3487 H   0  0  0  0  0  0  0  0  0  0  0  0
   10.1131   38.2590   32.6664 H   0  0  0  0  0  0  0  0  0  0  0  0
   13.6801   37.4625   31.2265 H   0  0  0  0  0  0  0  0  0  0  0  0
    8.8953   38.6909   30.8891 H   0  0  0  0  0  0  0  0  0  0  0  0
   11.2830   36.3060   32.4929 H   0  0  0  0  0  0  0  0  0  0  0  0
   11.8859   36.9588   29.7593 H   0  0  0  0  0  0  0  0  0  0  0  0
   12.3360   38.3600   34.7441 H   0  0  0  0  0  0  0  0  0  0  0  0
   16.7572   34.1793   32.4621 H   0  0  0  0  0  0  0  0  0  0  0  0
   15.3528   35.7356   37.5140 H   0  0  0  0  0  0  0  0  0  0  0  0
   16.6362   34.5318   37.1416 H   0  0  0  0  0  0  0  0  0  0  0  0
  1  2  2  0
  1  3  1  0
  3  4  1  0
  4  5  1  0
  6  1  1  0
  7  6  1  0
  6  8  1  0
  8  9  1  0
  9 10  1  0
  9 11  2  0
 10 12  1  0
 12 13  1  0
 13 14  2  0
 15 13  1  0
 14 16  1  0
 14 17  1  0
 18 15  2  0
 16 19  1  0
 16 20  2  0
 17 21  2  0
 21 18  1  0
  4 22  2  0
  4 23  1  0
 24 23  1  0
 24 25  1  0
 25 26  1  0
 25 27  1  0
 26 28  1  0
 27 29  1  0
 27 30  1  0
 30 28  1  0
 28 31  1  0
 30 32  1  0
 33 31  1  0
 34 31  1  0
 35 33  2  0
 33 36  1  0
 37 34  2  0
 38 35  1  0
 36 39  2  0
 36 37  1  0
 40 38  2  0
 40 39  1  0
 39 41  1  0
  6 42  1  6
  7 43  1  0
  7 44  1  0
  8 45  1  0
  8 46  1  0
 12 47  1  0
 12 48  1  0
 15 49  1  0
 17 50  1  0
 18 51  1  0
 21 52  1  0
 24 53  1  0
 24 54  1  0
 25 55  1  0
 27 56  1  0
 28 57  1  0
 29 58  1  0
 30 59  1  0
 32 60  1  0
 34 61  1  0
 38 62  1  0
 41 63  1  0
 41 64  1  0
M  CHG  3   5  -1  16   1  19  -1
M  END
>  <EmbedRMS>  (147) 
0.08839137589202185

$$$$

     RDKit          3D

 64 67  0  0  0  0  0  0  0  0999 V2000
   10.2836   43.7723   33.8128 C   0  0  0  0  0  0  0  0  0  0  0  0
   11.4076   43.5834   34.3642 O   0  0  0  0  0  0  0  0  0  0  0  0
    9.3705   42.7278   33.6974 O   0  0  0  0  0  0  0  0  0  0  0  0
    9.8858   41.2316   34.2836 P   0  0  0  0  0  5  0  0  0  0  0  0
   10.3649   41.4682   35.8744 O   0  0  0  0  0  1  0  0  0  0  0  0
    9.9549   45.1201   33.2559 C   0  0  2  0  0  0  0  0  0  0  0  0
   11.0708   46.0444   33.4664 N   0  0  0  0  0  0  0  0  0  0  0  0
    8.6838   45.7099   33.8973 C   0  0  0  0  0  0  0  0  0  0  0  0
    7.4515   44.9543   33.5037 C   0  0  0  0  0  0  0  0  0  0  0  0
    6.8957   44.0366   34.3989 O   0  0  0  0  0  0  0  0  0  0  0  0
    6.9516   45.1205   32.3576 O   0  0  0  0  0  0  0  0  0  0  0  0
    5.8203   43.1704   34.0474 C   0  0  0  0  0  0  0  0  0  0  0  0
    5.4901   42.2227   35.1788 C   0  0  0  0  0  0  0  0  0  0  0  0
    4.2071   41.6229   35.2877 C   0  0  0  0  0  0  0  0  0  0  0  0
    6.4786   41.8969   36.1298 C   0  0  0  0  0  0  0  0  0  0  0  0
    3.1834   41.8442   34.3011 N   0  0  0  0  0  4  0  0  0  0  0  0
    3.9320   40.7813   36.3812 C   0  0  0  0  0  0  0  0  0  0  0  0
    6.1905   41.0438   37.1953 C   0  0  0  0  0  0  0  0  0  0  0  0
    3.4971   41.8583   32.9616 O   0  0  0  0  0  1  0  0  0  0  0  0
    1.9806   41.8430   34.6358 O   0  0  0  0  0  0  0  0  0  0  0  0
    4.9169   40.4955   37.3268 C   0  0  0  0  0  0  0  0  0  0  0  0
    8.8069   40.1903   34.2075 O   0  0  0  0  0  0  0  0  0  0  0  0
   11.2373   40.7877   33.3682 O   0  0  0  0  0  0  0  0  0  0  0  0
   10.9157   40.6877   31.9951 C   0  0  0  0  0  0  0  0  0  0  0  0
   11.5261   39.3869   31.4362 C   0  0  0  0  0  0  0  0  0  0  0  0
   12.7493   39.0891   32.0815 O   0  0  0  0  0  0  0  0  0  0  0  0
   10.6122   38.1893   31.6461 C   0  0  0  0  0  0  0  0  0  0  0  0
   12.9373   37.6825   32.0300 C   0  0  0  0  0  0  0  0  0  0  0  0
    9.6149   38.0838   30.6539 O   0  0  0  0  0  0  0  0  0  0  0  0
   11.5792   37.0135   31.7014 C   0  0  0  0  0  0  0  0  0  0  0  0
   13.4906   37.2169   33.3242 N   0  0  0  0  0  0  0  0  0  0  0  0
   11.6215   36.3251   30.4725 O   0  0  0  0  0  0  0  0  0  0  0  0
   14.4763   36.3266   33.5731 C   0  0  0  0  0  0  0  0  0  0  0  0
   13.1181   37.6308   34.5694 C   0  0  0  0  0  0  0  0  0  0  0  0
   15.2065   35.6137   32.6740 N   0  0  0  0  0  0  0  0  0  0  0  0
   14.6735   36.2270   34.9185 C   0  0  0  0  0  0  0  0  0  0  0  0
   13.8228   37.0451   35.5787 N   0  0  0  0  0  0  0  0  0  0  0  0
   16.1639   34.7593   33.1547 C   0  0  0  0  0  0  0  0  0  0  0  0
   15.6518   35.3489   35.4132 C   0  0  0  0  0  0  0  0  0  0  0  0
   16.3794   34.6308   34.5042 N   0  0  0  0  0  0  0  0  0  0  0  0
   15.9006   35.1931   36.8090 N   0  0  0  0  0  0  0  0  0  0  0  0
    9.7912   45.0154   32.1603 H   0  0  0  0  0  0  0  0  0  0  0  0
   11.2946   46.1157   34.4869 H   0  0  0  0  0  0  0  0  0  0  0  0
   11.9177   45.6895   32.9641 H   0  0  0  0  0  0  0  0  0  0  0  0
    8.7815   45.7105   35.0052 H   0  0  0  0  0  0  0  0  0  0  0  0
    8.5647   46.7665   33.5721 H   0  0  0  0  0  0  0  0  0  0  0  0
    4.9354   43.7976   33.8058 H   0  0  0  0  0  0  0  0  0  0  0  0
    6.1051   42.5728   33.1546 H   0  0  0  0  0  0  0  0  0  0  0  0
    7.4766   42.3090   36.0584 H   0  0  0  0  0  0  0  0  0  0  0  0
    2.9569   40.3227   36.4872 H   0  0  0  0  0  0  0  0  0  0  0  0
    6.9570   40.8099   37.9229 H   0  0  0  0  0  0  0  0  0  0  0  0
    4.6953   39.8365   38.1564 H   0  0  0  0  0  0  0  0  0  0  0  0
   11.3836   41.5501   31.4738 H   0  0  0  0  0  0  0  0  0  0  0  0
    9.8256   40.7181   31.7578 H   0  0  0  0  0  0  0  0  0  0  0  0
   11.7289   39.5287   30.3501 H   0  0  0  0  0  0  0  0  0  0  0  0
   10.1140   38.2719   32.6380 H   0  0  0  0  0  0  0  0  0  0  0  0
   13.6725   37.4632   31.2239 H   0  0  0  0  0  0  0  0  0  0  0  0
   10.0533   38.1084   29.7639 H   0  0  0  0  0  0  0  0  0  0  0  0
   11.2645   36.3134   32.5107 H   0  0  0  0  0  0  0  0  0  0  0  0
   12.1546   35.5030   30.6316 H   0  0  0  0  0  0  0  0  0  0  0  0
   12.3361   38.3585   34.7449 H   0  0  0  0  0  0  0  0  0  0  0  0
   16.7573   34.1788   32.4619 H   0  0  0  0  0  0  0  0  0  0  0  0
   15.3533   35.7353   37.5139 H   0  0  0  0  0  0  0  0  0  0  0  0
   16.6366   34.5314   37.1415 H   0  0  0  0  0  0  0  0  0  0  0  0
  1  2  2  0
  1  3  1  0
  3  4  1  0
  4  5  1  0
  6  1  1  0
  7  6  1  0
  6  8  1  0
  8  9  1  0
  9 10  1  0
  9 11  2  0
 10 12  1  0
 12 13  1  0
 13 14  2  0
 15 13  1  0
 14 16  1  0
 14 17  1  0
 18 15  2  0
 16 19  1  0
 16 20  2  0
 17 21  2  0
 21 18  1  0
  4 22  2  0
  4 23  1  0
 24 23  1  0
 24 25  1  0
 25 26  1  0
 25 27  1  0
 26 28  1  0
 27 29  1  0
 27 30  1  0
 30 28  1  0
 28 31  1  0
 30 32  1  0
 33 31  1  0
 34 31  1  0
 35 33  2  0
 33 36  1  0
 37 34  2  0
 38 35  1  0
 36 39  2  0
 36 37  1  0
 40 38  2  0
 40 39  1  0
 39 41  1  0
  6 42  1  6
  7 43  1  0
  7 44  1  0
  8 45  1  0
  8 46  1  0
 12 47  1  0
 12 48  1  0
 15 49  1  0
 17 50  1  0
 18 51  1  0
 21 52  1  0
 24 53  1  0
 24 54  1  0
 25 55  1  0
 27 56  1  0
 28 57  1  0
 29 58  1  0
 30 59  1  0
 32 60  1  0
 34 61  1  0
 38 62  1  0
 41 63  1  0
 41 64  1  0
M  CHG  3   5  -1  16   1  19  -1
M  END
>  <EmbedRMS>  (148) 
0.08894420795526077

$$$$

     RDKit          3D

 64 67  0  0  0  0  0  0  0  0999 V2000
   10.2828   43.7755   33.8084 C   0  0  0  0  0  0  0  0  0  0  0  0
   11.4085   43.5914   34.3583 O   0  0  0  0  0  0  0  0  0  0  0  0
    9.3666   42.7319   33.7017 O   0  0  0  0  0  0  0  0  0  0  0  0
    9.8860   41.2346   34.2842 P   0  0  0  0  0  5  0  0  0  0  0  0
   10.3669   41.4694   35.8746 O   0  0  0  0  0  1  0  0  0  0  0  0
    9.9544   45.1108   33.2422 C   0  0  2  0  0  0  0  0  0  0  0  0
   11.0721   46.0271   33.4845 N   0  0  0  0  0  0  0  0  0  0  0  0
    8.6393   45.6454   33.8484 C   0  0  0  0  0  0  0  0  0  0  0  0
    8.2182   46.9225   33.1910 C   0  0  0  0  0  0  0  0  0  0  0  0
    7.7792   46.8952   31.8652 O   0  0  0  0  0  0  0  0  0  0  0  0
    8.2921   48.0112   33.8237 O   0  0  0  0  0  0  0  0  0  0  0  0
    7.4419   48.0725   31.1392 C   0  0  0  0  0  0  0  0  0  0  0  0
    7.1180   47.7107   29.7111 C   0  0  0  0  0  0  0  0  0  0  0  0
    8.0228   46.9789   28.8928 C   0  0  0  0  0  0  0  0  0  0  0  0
    5.8649   48.0802   29.1881 C   0  0  0  0  0  0  0  0  0  0  0  0
    9.3264   46.5824   29.3577 N   0  0  0  0  0  4  0  0  0  0  0  0
    7.6272   46.6132   27.5939 C   0  0  0  0  0  0  0  0  0  0  0  0
    5.5004   47.7208   27.8900 C   0  0  0  0  0  0  0  0  0  0  0  0
    9.9051   45.4298   28.8782 O   0  0  0  0  0  1  0  0  0  0  0  0
   10.0128   47.3477   30.0651 O   0  0  0  0  0  0  0  0  0  0  0  0
    6.3776   46.9847   27.0965 C   0  0  0  0  0  0  0  0  0  0  0  0
    8.8086   40.1916   34.2086 O   0  0  0  0  0  0  0  0  0  0  0  0
   11.2376   40.7909   33.3678 O   0  0  0  0  0  0  0  0  0  0  0  0
   10.9159   40.6892   31.9948 C   0  0  0  0  0  0  0  0  0  0  0  0
   11.5251   39.3873   31.4364 C   0  0  0  0  0  0  0  0  0  0  0  0
   12.7485   39.0880   32.0804 O   0  0  0  0  0  0  0  0  0  0  0  0
   10.6100   38.1910   31.6470 C   0  0  0  0  0  0  0  0  0  0  0  0
   12.9348   37.6808   32.0292 C   0  0  0  0  0  0  0  0  0  0  0  0
    9.6126   38.0875   30.6547 O   0  0  0  0  0  0  0  0  0  0  0  0
   11.5767   37.0134   31.7025 C   0  0  0  0  0  0  0  0  0  0  0  0
   13.4901   37.2165   33.3236 N   0  0  0  0  0  0  0  0  0  0  0  0
   11.6322   36.3232   30.4741 O   0  0  0  0  0  0  0  0  0  0  0  0
   14.4762   36.3266   33.5727 C   0  0  0  0  0  0  0  0  0  0  0  0
   13.1179   37.6307   34.5689 C   0  0  0  0  0  0  0  0  0  0  0  0
   15.2065   35.6135   32.6738 N   0  0  0  0  0  0  0  0  0  0  0  0
   14.6736   36.2272   34.9182 C   0  0  0  0  0  0  0  0  0  0  0  0
   13.8228   37.0453   35.5783 N   0  0  0  0  0  0  0  0  0  0  0  0
   16.1640   34.7593   33.1547 C   0  0  0  0  0  0  0  0  0  0  0  0
   15.6518   35.3491   35.4130 C   0  0  0  0  0  0  0  0  0  0  0  0
   16.3794   34.6309   34.5042 N   0  0  0  0  0  0  0  0  0  0  0  0
   15.9004   35.1933   36.8089 N   0  0  0  0  0  0  0  0  0  0  0  0
    9.8259   44.9813   32.1442 H   0  0  0  0  0  0  0  0  0  0  0  0
   10.9360   46.8890   32.9081 H   0  0  0  0  0  0  0  0  0  0  0  0
   11.0795   46.3189   34.4897 H   0  0  0  0  0  0  0  0  0  0  0  0
    8.7552   45.7998   34.9441 H   0  0  0  0  0  0  0  0  0  0  0  0
    7.8265   44.9023   33.6975 H   0  0  0  0  0  0  0  0  0  0  0  0
    8.2869   48.7932   31.1565 H   0  0  0  0  0  0  0  0  0  0  0  0
    6.5763   48.5635   31.6356 H   0  0  0  0  0  0  0  0  0  0  0  0
    5.1597   48.6408   29.7894 H   0  0  0  0  0  0  0  0  0  0  0  0
    8.2972   46.0514   26.9555 H   0  0  0  0  0  0  0  0  0  0  0  0
    4.5322   48.0085   27.5010 H   0  0  0  0  0  0  0  0  0  0  0  0
    6.0903   46.7036   26.0914 H   0  0  0  0  0  0  0  0  0  0  0  0
    9.8257   40.7204   31.7579 H   0  0  0  0  0  0  0  0  0  0  0  0
   11.3840   41.5507   31.4724 H   0  0  0  0  0  0  0  0  0  0  0  0
   11.7273   39.5286   30.3501 H   0  0  0  0  0  0  0  0  0  0  0  0
   10.1122   38.2733   32.6390 H   0  0  0  0  0  0  0  0  0  0  0  0
   13.6685   37.4592   31.2224 H   0  0  0  0  0  0  0  0  0  0  0  0
   10.0513   38.1111   29.7648 H   0  0  0  0  0  0  0  0  0  0  0  0
   11.2801   36.3129   32.5195 H   0  0  0  0  0  0  0  0  0  0  0  0
   10.8625   35.6961   30.4645 H   0  0  0  0  0  0  0  0  0  0  0  0
   12.3356   38.3581   34.7445 H   0  0  0  0  0  0  0  0  0  0  0  0
   16.7574   34.1787   32.4619 H   0  0  0  0  0  0  0  0  0  0  0  0
   15.3531   35.7355   37.5137 H   0  0  0  0  0  0  0  0  0  0  0  0
   16.6364   34.5315   37.1415 H   0  0  0  0  0  0  0  0  0  0  0  0
  1  2  2  0
  1  3  1  0
  3  4  1  0
  4  5  1  0
  6  1  1  0
  7  6  1  0
  6  8  1  0
  8  9  1  0
  9 10  1  0
  9 11  2  0
 10 12  1  0
 12 13  1  0
 13 14  2  0
 15 13  1  0
 14 16  1  0
 14 17  1  0
 18 15  2  0
 16 19  1  0
 16 20  2  0
 17 21  2  0
 21 18  1  0
  4 22  2  0
  4 23  1  0
 24 23  1  0
 24 25  1  0
 25 26  1  0
 25 27  1  0
 26 28  1  0
 27 29  1  0
 27 30  1  0
 30 28  1  0
 28 31  1  0
 30 32  1  0
 33 31  1  0
 34 31  1  0
 35 33  2  0
 33 36  1  0
 37 34  2  0
 38 35  1  0
 36 39  2  0
 36 37  1  0
 40 38  2  0
 40 39  1  0
 39 41  1  0
  6 42  1  6
  7 43  1  0
  7 44  1  0
  8 45  1  0
  8 46  1  0
 12 47  1  0
 12 48  1  0
 15 49  1  0
 17 50  1  0
 18 51  1  0
 21 52  1  0
 24 53  1  0
 24 54  1  0
 25 55  1  0
 27 56  1  0
 28 57  1  0
 29 58  1  0
 30 59  1  0
 32 60  1  0
 34 61  1  0
 38 62  1  0
 41 63  1  0
 41 64  1  0
M  CHG  3   5  -1  16   1  19  -1
M  END
>  <EmbedRMS>  (149) 
0.08783194543595531

$$$$

     RDKit          3D

 64 67  0  0  0  0  0  0  0  0999 V2000
   10.2852   43.7722   33.8062 C   0  0  0  0  0  0  0  0  0  0  0  0
   11.4105   43.5876   34.3564 O   0  0  0  0  0  0  0  0  0  0  0  0
    9.3667   42.7312   33.7007 O   0  0  0  0  0  0  0  0  0  0  0  0
    9.8855   41.2341   34.2840 P   0  0  0  0  0  5  0  0  0  0  0  0
   10.3657   41.4698   35.8746 O   0  0  0  0  0  1  0  0  0  0  0  0
    9.9576   45.1111   33.2455 C   0  0  2  0  0  0  0  0  0  0  0  0
   11.0678   46.0357   33.4841 N   0  0  0  0  0  0  0  0  0  0  0  0
    8.6197   45.6610   33.7922 C   0  0  0  0  0  0  0  0  0  0  0  0
    8.5478   45.6749   35.2923 C   0  0  0  0  0  0  0  0  0  0  0  0
    9.1001   46.7437   36.0032 O   0  0  0  0  0  0  0  0  0  0  0  0
    8.0049   44.7122   35.9006 O   0  0  0  0  0  0  0  0  0  0  0  0
    9.0019   46.8569   37.4190 C   0  0  0  0  0  0  0  0  0  0  0  0
    9.7855   48.0574   37.8792 C   0  0  0  0  0  0  0  0  0  0  0  0
   11.1519   47.9751   38.2580 C   0  0  0  0  0  0  0  0  0  0  0  0
    9.1327   49.3022   37.9239 C   0  0  0  0  0  0  0  0  0  0  0  0
   11.8887   46.7412   38.1817 N   0  0  0  0  0  4  0  0  0  0  0  0
   11.8026   49.1325   38.7243 C   0  0  0  0  0  0  0  0  0  0  0  0
    9.8016   50.4413   38.3735 C   0  0  0  0  0  0  0  0  0  0  0  0
   11.7323   45.8975   37.1067 O   0  0  0  0  0  1  0  0  0  0  0  0
   12.8043   46.5081   38.9979 O   0  0  0  0  0  0  0  0  0  0  0  0
   11.1317   50.3551   38.7800 C   0  0  0  0  0  0  0  0  0  0  0  0
    8.8082   40.1911   34.2081 O   0  0  0  0  0  0  0  0  0  0  0  0
   11.2381   40.7904   33.3685 O   0  0  0  0  0  0  0  0  0  0  0  0
   10.9185   40.6888   31.9949 C   0  0  0  0  0  0  0  0  0  0  0  0
   11.5179   39.3800   31.4399 C   0  0  0  0  0  0  0  0  0  0  0  0
   12.7483   39.0876   32.0751 O   0  0  0  0  0  0  0  0  0  0  0  0
   10.6053   38.1875   31.6657 C   0  0  0  0  0  0  0  0  0  0  0  0
   12.9361   37.6817   32.0288 C   0  0  0  0  0  0  0  0  0  0  0  0
    9.6423   38.0738   30.6445 O   0  0  0  0  0  0  0  0  0  0  0  0
   11.5765   37.0158   31.7046 C   0  0  0  0  0  0  0  0  0  0  0  0
   13.4908   37.2183   33.3237 N   0  0  0  0  0  0  0  0  0  0  0  0
   11.6102   36.3399   30.4680 O   0  0  0  0  0  0  0  0  0  0  0  0
   14.4762   36.3274   33.5728 C   0  0  0  0  0  0  0  0  0  0  0  0
   13.1181   37.6318   34.5689 C   0  0  0  0  0  0  0  0  0  0  0  0
   15.2063   35.6141   32.6739 N   0  0  0  0  0  0  0  0  0  0  0  0
   14.6733   36.2275   34.9182 C   0  0  0  0  0  0  0  0  0  0  0  0
   13.8226   37.0457   35.5783 N   0  0  0  0  0  0  0  0  0  0  0  0
   16.1635   34.7595   33.1546 C   0  0  0  0  0  0  0  0  0  0  0  0
   15.6515   35.3492   35.4130 C   0  0  0  0  0  0  0  0  0  0  0  0
   16.3791   34.6310   34.5041 N   0  0  0  0  0  0  0  0  0  0  0  0
   15.9002   35.1934   36.8089 N   0  0  0  0  0  0  0  0  0  0  0  0
    9.8473   44.9856   32.1459 H   0  0  0  0  0  0  0  0  0  0  0  0
   11.1441   46.2506   34.5036 H   0  0  0  0  0  0  0  0  0  0  0  0
   10.8660   46.9359   32.9911 H   0  0  0  0  0  0  0  0  0  0  0  0
    7.7844   45.0428   33.3957 H   0  0  0  0  0  0  0  0  0  0  0  0
    8.4604   46.6936   33.4140 H   0  0  0  0  0  0  0  0  0  0  0  0
    9.3701   45.9322   37.9119 H   0  0  0  0  0  0  0  0  0  0  0  0
    7.9323   46.9660   37.7039 H   0  0  0  0  0  0  0  0  0  0  0  0
    8.0968   49.3892   37.6191 H   0  0  0  0  0  0  0  0  0  0  0  0
   12.8416   49.0923   39.0261 H   0  0  0  0  0  0  0  0  0  0  0  0
    9.2858   51.3921   38.4105 H   0  0  0  0  0  0  0  0  0  0  0  0
   11.6475   51.2394   39.1314 H   0  0  0  0  0  0  0  0  0  0  0  0
    9.8305   40.7372   31.7554 H   0  0  0  0  0  0  0  0  0  0  0  0
   11.3987   41.5436   31.4724 H   0  0  0  0  0  0  0  0  0  0  0  0
   11.7001   39.5046   30.3474 H   0  0  0  0  0  0  0  0  0  0  0  0
   10.1103   38.2618   32.6637 H   0  0  0  0  0  0  0  0  0  0  0  0
   13.6696   37.4587   31.2223 H   0  0  0  0  0  0  0  0  0  0  0  0
    8.9000   38.6881   30.8814 H   0  0  0  0  0  0  0  0  0  0  0  0
   11.2690   36.3069   32.5091 H   0  0  0  0  0  0  0  0  0  0  0  0
   12.1427   35.5151   30.6153 H   0  0  0  0  0  0  0  0  0  0  0  0
   12.3359   38.3593   34.7445 H   0  0  0  0  0  0  0  0  0  0  0  0
   16.7569   34.1789   32.4618 H   0  0  0  0  0  0  0  0  0  0  0  0
   15.3530   35.7357   37.5138 H   0  0  0  0  0  0  0  0  0  0  0  0
   16.6361   34.5315   37.1413 H   0  0  0  0  0  0  0  0  0  0  0  0
  1  2  2  0
  1  3  1  0
  3  4  1  0
  4  5  1  0
  6  1  1  0
  7  6  1  0
  6  8  1  0
  8  9  1  0
  9 10  1  0
  9 11  2  0
 10 12  1  0
 12 13  1  0
 13 14  2  0
 15 13  1  0
 14 16  1  0
 14 17  1  0
 18 15  2  0
 16 19  1  0
 16 20  2  0
 17 21  2  0
 21 18  1  0
  4 22  2  0
  4 23  1  0
 24 23  1  0
 24 25  1  0
 25 26  1  0
 25 27  1  0
 26 28  1  0
 27 29  1  0
 27 30  1  0
 30 28  1  0
 28 31  1  0
 30 32  1  0
 33 31  1  0
 34 31  1  0
 35 33  2  0
 33 36  1  0
 37 34  2  0
 38 35  1  0
 36 39  2  0
 36 37  1  0
 40 38  2  0
 40 39  1  0
 39 41  1  0
  6 42  1  6
  7 43  1  0
  7 44  1  0
  8 45  1  0
  8 46  1  0
 12 47  1  0
 12 48  1  0
 15 49  1  0
 17 50  1  0
 18 51  1  0
 21 52  1  0
 24 53  1  0
 24 54  1  0
 25 55  1  0
 27 56  1  0
 28 57  1  0
 29 58  1  0
 30 59  1  0
 32 60  1  0
 34 61  1  0
 38 62  1  0
 41 63  1  0
 41 64  1  0
M  CHG  3   5  -1  16   1  19  -1
M  END
>  <EmbedRMS>  (150) 
0.08915854228845317

$$$$

     RDKit          3D

 64 67  0  0  0  0  0  0  0  0999 V2000
   10.2860   43.7720   33.8046 C   0  0  0  0  0  0  0  0  0  0  0  0
   11.4085   43.5885   34.3610 O   0  0  0  0  0  0  0  0  0  0  0  0
    9.3675   42.7309   33.6991 O   0  0  0  0  0  0  0  0  0  0  0  0
    9.8854   41.2341   34.2839 P   0  0  0  0  0  5  0  0  0  0  0  0
   10.3658   41.4701   35.8744 O   0  0  0  0  0  1  0  0  0  0  0  0
    9.9529   45.1149   33.2536 C   0  0  2  0  0  0  0  0  0  0  0  0
   11.0715   46.0331   33.4765 N   0  0  0  0  0  0  0  0  0  0  0  0
    8.6604   45.6657   33.8898 C   0  0  0  0  0  0  0  0  0  0  0  0
    8.7907   45.8545   35.3722 C   0  0  0  0  0  0  0  0  0  0  0  0
    9.4390   46.9897   35.8655 O   0  0  0  0  0  0  0  0  0  0  0  0
    8.3480   44.9731   36.1587 O   0  0  0  0  0  0  0  0  0  0  0  0
    9.6377   47.2196   37.2580 C   0  0  0  0  0  0  0  0  0  0  0  0
   10.3738   48.5195   37.4914 C   0  0  0  0  0  0  0  0  0  0  0  0
   11.1906   48.7136   38.6369 C   0  0  0  0  0  0  0  0  0  0  0  0
   10.2281   49.5756   36.5696 C   0  0  0  0  0  0  0  0  0  0  0  0
   11.2966   47.7145   39.6664 N   0  0  0  0  0  4  0  0  0  0  0  0
   11.9016   49.9193   38.7783 C   0  0  0  0  0  0  0  0  0  0  0  0
   10.9278   50.7711   36.7386 C   0  0  0  0  0  0  0  0  0  0  0  0
   10.1775   47.0422   40.1008 O   0  0  0  0  0  1  0  0  0  0  0  0
   12.3618   47.5830   40.3042 O   0  0  0  0  0  0  0  0  0  0  0  0
   11.7719   50.9381   37.8342 C   0  0  0  0  0  0  0  0  0  0  0  0
    8.8078   40.1913   34.2086 O   0  0  0  0  0  0  0  0  0  0  0  0
   11.2373   40.7896   33.3684 O   0  0  0  0  0  0  0  0  0  0  0  0
   10.9162   40.6889   31.9951 C   0  0  0  0  0  0  0  0  0  0  0  0
   11.5253   39.3872   31.4364 C   0  0  0  0  0  0  0  0  0  0  0  0
   12.7487   39.0879   32.0802 O   0  0  0  0  0  0  0  0  0  0  0  0
   10.6101   38.1909   31.6470 C   0  0  0  0  0  0  0  0  0  0  0  0
   12.9348   37.6807   32.0292 C   0  0  0  0  0  0  0  0  0  0  0  0
    9.6126   38.0874   30.6547 O   0  0  0  0  0  0  0  0  0  0  0  0
   11.5767   37.0133   31.7025 C   0  0  0  0  0  0  0  0  0  0  0  0
   13.4901   37.2165   33.3236 N   0  0  0  0  0  0  0  0  0  0  0  0
   11.6321   36.3231   30.4741 O   0  0  0  0  0  0  0  0  0  0  0  0
   14.4763   36.3266   33.5728 C   0  0  0  0  0  0  0  0  0  0  0  0
   13.1179   37.6307   34.5689 C   0  0  0  0  0  0  0  0  0  0  0  0
   15.2065   35.6135   32.6739 N   0  0  0  0  0  0  0  0  0  0  0  0
   14.6736   36.2272   34.9182 C   0  0  0  0  0  0  0  0  0  0  0  0
   13.8228   37.0453   35.5783 N   0  0  0  0  0  0  0  0  0  0  0  0
   16.1640   34.7592   33.1547 C   0  0  0  0  0  0  0  0  0  0  0  0
   15.6519   35.3491   35.4131 C   0  0  0  0  0  0  0  0  0  0  0  0
   16.3795   34.6309   34.5042 N   0  0  0  0  0  0  0  0  0  0  0  0
   15.9005   35.1933   36.8089 N   0  0  0  0  0  0  0  0  0  0  0  0
    9.7828   45.0057   32.1588 H   0  0  0  0  0  0  0  0  0  0  0  0
   11.8822   45.7131   32.8969 H   0  0  0  0  0  0  0  0  0  0  0  0
   10.8100   46.9722   33.0969 H   0  0  0  0  0  0  0  0  0  0  0  0
    7.8127   44.9789   33.6731 H   0  0  0  0  0  0  0  0  0  0  0  0
    8.4087   46.6437   33.4258 H   0  0  0  0  0  0  0  0  0  0  0  0
    8.6536   47.2649   37.7720 H   0  0  0  0  0  0  0  0  0  0  0  0
   10.2269   46.3698   37.6644 H   0  0  0  0  0  0  0  0  0  0  0  0
    9.5795   49.4746   35.7085 H   0  0  0  0  0  0  0  0  0  0  0  0
   12.5384   50.0815   39.6388 H   0  0  0  0  0  0  0  0  0  0  0  0
   10.8168   51.5693   36.0160 H   0  0  0  0  0  0  0  0  0  0  0  0
   12.3155   51.8655   37.9611 H   0  0  0  0  0  0  0  0  0  0  0  0
    9.8262   40.7205   31.7576 H   0  0  0  0  0  0  0  0  0  0  0  0
   11.3851   41.5506   31.4736 H   0  0  0  0  0  0  0  0  0  0  0  0
   11.7274   39.5286   30.3501 H   0  0  0  0  0  0  0  0  0  0  0  0
   10.1123   38.2732   32.6390 H   0  0  0  0  0  0  0  0  0  0  0  0
   13.6685   37.4590   31.2224 H   0  0  0  0  0  0  0  0  0  0  0  0
   10.0514   38.1111   29.7648 H   0  0  0  0  0  0  0  0  0  0  0  0
   11.2801   36.3129   32.5195 H   0  0  0  0  0  0  0  0  0  0  0  0
   10.8624   35.6960   30.4646 H   0  0  0  0  0  0  0  0  0  0  0  0
   12.3356   38.3581   34.7445 H   0  0  0  0  0  0  0  0  0  0  0  0
   16.7575   34.1787   32.4620 H   0  0  0  0  0  0  0  0  0  0  0  0
   15.3532   35.7355   37.5138 H   0  0  0  0  0  0  0  0  0  0  0  0
   16.6364   34.5315   37.1415 H   0  0  0  0  0  0  0  0  0  0  0  0
  1  2  2  0
  1  3  1  0
  3  4  1  0
  4  5  1  0
  6  1  1  0
  7  6  1  0
  6  8  1  0
  8  9  1  0
  9 10  1  0
  9 11  2  0
 10 12  1  0
 12 13  1  0
 13 14  2  0
 15 13  1  0
 14 16  1  0
 14 17  1  0
 18 15  2  0
 16 19  1  0
 16 20  2  0
 17 21  2  0
 21 18  1  0
  4 22  2  0
  4 23  1  0
 24 23  1  0
 24 25  1  0
 25 26  1  0
 25 27  1  0
 26 28  1  0
 27 29  1  0
 27 30  1  0
 30 28  1  0
 28 31  1  0
 30 32  1  0
 33 31  1  0
 34 31  1  0
 35 33  2  0
 33 36  1  0
 37 34  2  0
 38 35  1  0
 36 39  2  0
 36 37  1  0
 40 38  2  0
 40 39  1  0
 39 41  1  0
  6 42  1  6
  7 43  1  0
  7 44  1  0
  8 45  1  0
  8 46  1  0
 12 47  1  0
 12 48  1  0
 15 49  1  0
 17 50  1  0
 18 51  1  0
 21 52  1  0
 24 53  1  0
 24 54  1  0
 25 55  1  0
 27 56  1  0
 28 57  1  0
 29 58  1  0
 30 59  1  0
 32 60  1  0
 34 61  1  0
 38 62  1  0
 41 63  1  0
 41 64  1  0
M  CHG  3   5  -1  16   1  19  -1
M  END
>  <EmbedRMS>  (151) 
0.08815294247930786

$$$$

     RDKit          3D

 64 67  0  0  0  0  0  0  0  0999 V2000
   10.2851   43.7724   33.8062 C   0  0  0  0  0  0  0  0  0  0  0  0
   11.4106   43.5873   34.3558 O   0  0  0  0  0  0  0  0  0  0  0  0
    9.3665   42.7313   33.7011 O   0  0  0  0  0  0  0  0  0  0  0  0
    9.8851   41.2342   34.2845 P   0  0  0  0  0  5  0  0  0  0  0  0
   10.3660   41.4699   35.8748 O   0  0  0  0  0  1  0  0  0  0  0  0
    9.9577   45.1111   33.2448 C   0  0  2  0  0  0  0  0  0  0  0  0
   11.0677   46.0364   33.4847 N   0  0  0  0  0  0  0  0  0  0  0  0
    8.6208   45.6582   33.7948 C   0  0  0  0  0  0  0  0  0  0  0  0
    8.6138   45.7975   35.2884 C   0  0  0  0  0  0  0  0  0  0  0  0
    8.9639   47.0224   35.8671 O   0  0  0  0  0  0  0  0  0  0  0  0
    8.3174   44.8052   36.0078 O   0  0  0  0  0  0  0  0  0  0  0  0
    9.0291   47.2374   37.2762 C   0  0  0  0  0  0  0  0  0  0  0  0
    7.6504   47.1874   37.8950 C   0  0  0  0  0  0  0  0  0  0  0  0
    7.3520   46.4068   39.0424 C   0  0  0  0  0  0  0  0  0  0  0  0
    6.6564   48.0281   37.3620 C   0  0  0  0  0  0  0  0  0  0  0  0
    8.3196   45.5246   39.6301 N   0  0  0  0  0  4  0  0  0  0  0  0
    6.0751   46.4974   39.6233 C   0  0  0  0  0  0  0  0  0  0  0  0
    5.3887   48.0914   37.9424 C   0  0  0  0  0  0  0  0  0  0  0  0
    8.9079   44.5435   38.8666 O   0  0  0  0  0  1  0  0  0  0  0  0
    8.4386   45.4734   40.8717 O   0  0  0  0  0  0  0  0  0  0  0  0
    5.0995   47.3298   39.0730 C   0  0  0  0  0  0  0  0  0  0  0  0
    8.8076   40.1913   34.2090 O   0  0  0  0  0  0  0  0  0  0  0  0
   11.2367   40.7902   33.3682 O   0  0  0  0  0  0  0  0  0  0  0  0
   10.9150   40.6882   31.9951 C   0  0  0  0  0  0  0  0  0  0  0  0
   11.5259   39.3871   31.4366 C   0  0  0  0  0  0  0  0  0  0  0  0
   12.7490   39.0894   32.0820 O   0  0  0  0  0  0  0  0  0  0  0  0
   10.6122   38.1893   31.6462 C   0  0  0  0  0  0  0  0  0  0  0  0
   12.9373   37.6828   32.0301 C   0  0  0  0  0  0  0  0  0  0  0  0
    9.6150   38.0838   30.6538 O   0  0  0  0  0  0  0  0  0  0  0  0
   11.5793   37.0137   31.7014 C   0  0  0  0  0  0  0  0  0  0  0  0
   13.4906   37.2170   33.3242 N   0  0  0  0  0  0  0  0  0  0  0  0
   11.6217   36.3253   30.4725 O   0  0  0  0  0  0  0  0  0  0  0  0
   14.4763   36.3266   33.5731 C   0  0  0  0  0  0  0  0  0  0  0  0
   13.1181   37.6308   34.5694 C   0  0  0  0  0  0  0  0  0  0  0  0
   15.2065   35.6137   32.6740 N   0  0  0  0  0  0  0  0  0  0  0  0
   14.6735   36.2270   34.9185 C   0  0  0  0  0  0  0  0  0  0  0  0
   13.8229   37.0451   35.5787 N   0  0  0  0  0  0  0  0  0  0  0  0
   16.1639   34.7593   33.1547 C   0  0  0  0  0  0  0  0  0  0  0  0
   15.6519   35.3489   35.4132 C   0  0  0  0  0  0  0  0  0  0  0  0
   16.3794   34.6308   34.5042 N   0  0  0  0  0  0  0  0  0  0  0  0
   15.9006   35.1931   36.8090 N   0  0  0  0  0  0  0  0  0  0  0  0
    9.8457   44.9853   32.1455 H   0  0  0  0  0  0  0  0  0  0  0  0
   11.1603   46.2309   34.5083 H   0  0  0  0  0  0  0  0  0  0  0  0
   10.8541   46.9452   33.0129 H   0  0  0  0  0  0  0  0  0  0  0  0
    8.4140   46.6501   33.3382 H   0  0  0  0  0  0  0  0  0  0  0  0
    7.7908   44.9844   33.4886 H   0  0  0  0  0  0  0  0  0  0  0  0
    9.4514   48.2485   37.4550 H   0  0  0  0  0  0  0  0  0  0  0  0
    9.7402   46.5182   37.7260 H   0  0  0  0  0  0  0  0  0  0  0  0
    6.8687   48.6466   36.4983 H   0  0  0  0  0  0  0  0  0  0  0  0
    5.8314   45.9078   40.4983 H   0  0  0  0  0  0  0  0  0  0  0  0
    4.6326   48.7409   37.5204 H   0  0  0  0  0  0  0  0  0  0  0  0
    4.1175   47.3846   39.5250 H   0  0  0  0  0  0  0  0  0  0  0  0
   11.3820   41.5504   31.4728 H   0  0  0  0  0  0  0  0  0  0  0  0
    9.8248   40.7178   31.7585 H   0  0  0  0  0  0  0  0  0  0  0  0
   11.7289   39.5289   30.3506 H   0  0  0  0  0  0  0  0  0  0  0  0
   10.1138   38.2717   32.6380 H   0  0  0  0  0  0  0  0  0  0  0  0
   13.6726   37.4638   31.2240 H   0  0  0  0  0  0  0  0  0  0  0  0
   10.0536   38.1086   29.7639 H   0  0  0  0  0  0  0  0  0  0  0  0
   11.2646   36.3134   32.5107 H   0  0  0  0  0  0  0  0  0  0  0  0
   12.1550   35.5033   30.6315 H   0  0  0  0  0  0  0  0  0  0  0  0
   12.3362   38.3586   34.7451 H   0  0  0  0  0  0  0  0  0  0  0  0
   16.7573   34.1788   32.4619 H   0  0  0  0  0  0  0  0  0  0  0  0
   16.6366   34.5314   37.1415 H   0  0  0  0  0  0  0  0  0  0  0  0
   15.3533   35.7353   37.5139 H   0  0  0  0  0  0  0  0  0  0  0  0
  1  2  2  0
  1  3  1  0
  3  4  1  0
  4  5  1  0
  6  1  1  0
  7  6  1  0
  6  8  1  0
  8  9  1  0
  9 10  1  0
  9 11  2  0
 10 12  1  0
 12 13  1  0
 13 14  2  0
 15 13  1  0
 14 16  1  0
 14 17  1  0
 18 15  2  0
 16 19  1  0
 16 20  2  0
 17 21  2  0
 21 18  1  0
  4 22  2  0
  4 23  1  0
 24 23  1  0
 24 25  1  0
 25 26  1  0
 25 27  1  0
 26 28  1  0
 27 29  1  0
 27 30  1  0
 30 28  1  0
 28 31  1  0
 30 32  1  0
 33 31  1  0
 34 31  1  0
 35 33  2  0
 33 36  1  0
 37 34  2  0
 38 35  1  0
 36 39  2  0
 36 37  1  0
 40 38  2  0
 40 39  1  0
 39 41  1  0
  6 42  1  6
  7 43  1  0
  7 44  1  0
  8 45  1  0
  8 46  1  0
 12 47  1  0
 12 48  1  0
 15 49  1  0
 17 50  1  0
 18 51  1  0
 21 52  1  0
 24 53  1  0
 24 54  1  0
 25 55  1  0
 27 56  1  0
 28 57  1  0
 29 58  1  0
 30 59  1  0
 32 60  1  0
 34 61  1  0
 38 62  1  0
 41 63  1  0
 41 64  1  0
M  CHG  3   5  -1  16   1  19  -1
M  END
>  <EmbedRMS>  (152) 
0.08779332607596281

$$$$

     RDKit          3D

 64 67  0  0  0  0  0  0  0  0999 V2000
   10.2869   43.7702   33.7997 C   0  0  0  0  0  0  0  0  0  0  0  0
   11.4105   43.5848   34.3531 O   0  0  0  0  0  0  0  0  0  0  0  0
    9.3667   42.7305   33.6981 O   0  0  0  0  0  0  0  0  0  0  0  0
    9.8855   41.2344   34.2840 P   0  0  0  0  0  5  0  0  0  0  0  0
   10.3666   41.4721   35.8743 O   0  0  0  0  0  1  0  0  0  0  0  0
    9.9542   45.1150   33.2509 C   0  0  2  0  0  0  0  0  0  0  0  0
   11.0689   46.0345   33.4866 N   0  0  0  0  0  0  0  0  0  0  0  0
    8.6531   45.6631   33.8751 C   0  0  0  0  0  0  0  0  0  0  0  0
    8.7131   45.7065   35.3735 C   0  0  0  0  0  0  0  0  0  0  0  0
    9.5298   46.6498   36.0063 O   0  0  0  0  0  0  0  0  0  0  0  0
    8.0618   44.8631   36.0475 O   0  0  0  0  0  0  0  0  0  0  0  0
    9.7953   46.6409   37.4084 C   0  0  0  0  0  0  0  0  0  0  0  0
   10.6197   45.4301   37.7853 C   0  0  0  0  0  0  0  0  0  0  0  0
   10.2617   44.5523   38.8417 C   0  0  0  0  0  0  0  0  0  0  0  0
   11.8302   45.2180   37.1007 C   0  0  0  0  0  0  0  0  0  0  0  0
    9.0456   44.7182   39.5851 N   0  0  0  0  0  4  0  0  0  0  0  0
   11.1218   43.4920   39.1766 C   0  0  0  0  0  0  0  0  0  0  0  0
   12.6625   44.1493   37.4359 C   0  0  0  0  0  0  0  0  0  0  0  0
    7.8357   44.7255   38.9314 O   0  0  0  0  0  1  0  0  0  0  0  0
    9.0574   44.5959   40.8273 O   0  0  0  0  0  0  0  0  0  0  0  0
   12.3093   43.2881   38.4728 C   0  0  0  0  0  0  0  0  0  0  0  0
    8.8079   40.1915   34.2098 O   0  0  0  0  0  0  0  0  0  0  0  0
   11.2369   40.7900   33.3670 O   0  0  0  0  0  0  0  0  0  0  0  0
   10.9143   40.6850   31.9940 C   0  0  0  0  0  0  0  0  0  0  0  0
   11.5165   39.3775   31.4397 C   0  0  0  0  0  0  0  0  0  0  0  0
   12.7472   39.0855   32.0740 O   0  0  0  0  0  0  0  0  0  0  0  0
   10.6047   38.1868   31.6671 C   0  0  0  0  0  0  0  0  0  0  0  0
   12.9345   37.6792   32.0283 C   0  0  0  0  0  0  0  0  0  0  0  0
    9.6379   38.0919   30.6489 O   0  0  0  0  0  0  0  0  0  0  0  0
   11.5761   37.0130   31.7057 C   0  0  0  0  0  0  0  0  0  0  0  0
   13.4909   37.2178   33.3234 N   0  0  0  0  0  0  0  0  0  0  0  0
   11.6234   36.3372   30.4684 O   0  0  0  0  0  0  0  0  0  0  0  0
   14.4765   36.3272   33.5728 C   0  0  0  0  0  0  0  0  0  0  0  0
   13.1182   37.6317   34.5686 C   0  0  0  0  0  0  0  0  0  0  0  0
   15.2066   35.6138   32.6739 N   0  0  0  0  0  0  0  0  0  0  0  0
   14.6735   36.2276   34.9182 C   0  0  0  0  0  0  0  0  0  0  0  0
   13.8227   37.0458   35.5782 N   0  0  0  0  0  0  0  0  0  0  0  0
   16.1638   34.7593   33.1548 C   0  0  0  0  0  0  0  0  0  0  0  0
   15.6517   35.3493   35.4131 C   0  0  0  0  0  0  0  0  0  0  0  0
   16.3792   34.6309   34.5043 N   0  0  0  0  0  0  0  0  0  0  0  0
   15.9002   35.1934   36.8090 N   0  0  0  0  0  0  0  0  0  0  0  0
    9.7960   45.0108   32.1538 H   0  0  0  0  0  0  0  0  0  0  0  0
   10.8131   46.9724   33.1005 H   0  0  0  0  0  0  0  0  0  0  0  0
   11.8884   45.7137   32.9200 H   0  0  0  0  0  0  0  0  0  0  0  0
    8.4557   46.6875   33.4929 H   0  0  0  0  0  0  0  0  0  0  0  0
    7.7969   45.0288   33.5554 H   0  0  0  0  0  0  0  0  0  0  0  0
    8.8424   46.7161   37.9666 H   0  0  0  0  0  0  0  0  0  0  0  0
   10.3801   47.5507   37.6589 H   0  0  0  0  0  0  0  0  0  0  0  0
   12.1318   45.8864   36.3034 H   0  0  0  0  0  0  0  0  0  0  0  0
   10.8614   42.8118   39.9779 H   0  0  0  0  0  0  0  0  0  0  0  0
   13.5866   43.9932   36.8945 H   0  0  0  0  0  0  0  0  0  0  0  0
   12.9579   42.4618   38.7337 H   0  0  0  0  0  0  0  0  0  0  0  0
   11.3873   41.5418   31.4682 H   0  0  0  0  0  0  0  0  0  0  0  0
    9.8243   40.7214   31.7573 H   0  0  0  0  0  0  0  0  0  0  0  0
   11.6985   39.5018   30.3471 H   0  0  0  0  0  0  0  0  0  0  0  0
   10.1095   38.2770   32.6630 H   0  0  0  0  0  0  0  0  0  0  0  0
   13.6672   37.4546   31.2213 H   0  0  0  0  0  0  0  0  0  0  0  0
    8.9780   37.4159   30.9533 H   0  0  0  0  0  0  0  0  0  0  0  0
   11.2861   36.3042   32.5177 H   0  0  0  0  0  0  0  0  0  0  0  0
   10.8690   35.6919   30.4658 H   0  0  0  0  0  0  0  0  0  0  0  0
   12.3357   38.3589   34.7440 H   0  0  0  0  0  0  0  0  0  0  0  0
   16.7571   34.1786   32.4621 H   0  0  0  0  0  0  0  0  0  0  0  0
   16.6361   34.5316   37.1416 H   0  0  0  0  0  0  0  0  0  0  0  0
   15.3531   35.7358   37.5138 H   0  0  0  0  0  0  0  0  0  0  0  0
  1  2  2  0
  1  3  1  0
  3  4  1  0
  4  5  1  0
  6  1  1  0
  7  6  1  0
  6  8  1  0
  8  9  1  0
  9 10  1  0
  9 11  2  0
 10 12  1  0
 12 13  1  0
 13 14  2  0
 15 13  1  0
 14 16  1  0
 14 17  1  0
 18 15  2  0
 16 19  1  0
 16 20  2  0
 17 21  2  0
 21 18  1  0
  4 22  2  0
  4 23  1  0
 24 23  1  0
 24 25  1  0
 25 26  1  0
 25 27  1  0
 26 28  1  0
 27 29  1  0
 27 30  1  0
 30 28  1  0
 28 31  1  0
 30 32  1  0
 33 31  1  0
 34 31  1  0
 35 33  2  0
 33 36  1  0
 37 34  2  0
 38 35  1  0
 36 39  2  0
 36 37  1  0
 40 38  2  0
 40 39  1  0
 39 41  1  0
  6 42  1  6
  7 43  1  0
  7 44  1  0
  8 45  1  0
  8 46  1  0
 12 47  1  0
 12 48  1  0
 15 49  1  0
 17 50  1  0
 18 51  1  0
 21 52  1  0
 24 53  1  0
 24 54  1  0
 25 55  1  0
 27 56  1  0
 28 57  1  0
 29 58  1  0
 30 59  1  0
 32 60  1  0
 34 61  1  0
 38 62  1  0
 41 63  1  0
 41 64  1  0
M  CHG  3   5  -1  16   1  19  -1
M  END
>  <EmbedRMS>  (153) 
0.08876338807025223

$$$$

     RDKit          3D

 64 67  0  0  0  0  0  0  0  0999 V2000
   10.2809   43.7759   33.8097 C   0  0  0  0  0  0  0  0  0  0  0  0
   11.4069   43.5917   34.3592 O   0  0  0  0  0  0  0  0  0  0  0  0
    9.3683   42.7300   33.6997 O   0  0  0  0  0  0  0  0  0  0  0  0
    9.8870   41.2337   34.2833 P   0  0  0  0  0  5  0  0  0  0  0  0
   10.3675   41.4693   35.8737 O   0  0  0  0  0  1  0  0  0  0  0  0
    9.9524   45.1159   33.2452 C   0  0  2  0  0  0  0  0  0  0  0  0
   11.0745   46.0260   33.4813 N   0  0  0  0  0  0  0  0  0  0  0  0
    8.6542   45.6904   33.8544 C   0  0  0  0  0  0  0  0  0  0  0  0
    7.4411   44.9303   33.4116 C   0  0  0  0  0  0  0  0  0  0  0  0
    7.0851   44.9307   32.0584 O   0  0  0  0  0  0  0  0  0  0  0  0
    6.7586   44.2901   34.2575 O   0  0  0  0  0  0  0  0  0  0  0  0
    5.9467   44.2385   31.5496 C   0  0  0  0  0  0  0  0  0  0  0  0
    4.6662   44.8943   32.0144 C   0  0  0  0  0  0  0  0  0  0  0  0
    4.4059   46.2781   31.8140 C   0  0  0  0  0  0  0  0  0  0  0  0
    3.7226   44.1112   32.7046 C   0  0  0  0  0  0  0  0  0  0  0  0
    5.3198   47.1345   31.1040 N   0  0  0  0  0  4  0  0  0  0  0  0
    3.2271   46.8350   32.3413 C   0  0  0  0  0  0  0  0  0  0  0  0
    2.5520   44.6821   33.2050 C   0  0  0  0  0  0  0  0  0  0  0  0
    5.3914   48.4723   31.4180 O   0  0  0  0  0  1  0  0  0  0  0  0
    5.9324   46.7219   30.0983 O   0  0  0  0  0  0  0  0  0  0  0  0
    2.3070   46.0419   33.0280 C   0  0  0  0  0  0  0  0  0  0  0  0
    8.8088   40.1914   34.2081 O   0  0  0  0  0  0  0  0  0  0  0  0
   11.2380   40.7905   33.3657 O   0  0  0  0  0  0  0  0  0  0  0  0
   10.9144   40.6850   31.9931 C   0  0  0  0  0  0  0  0  0  0  0  0
   11.5166   39.3773   31.4392 C   0  0  0  0  0  0  0  0  0  0  0  0
   12.7472   39.0854   32.0738 O   0  0  0  0  0  0  0  0  0  0  0  0
   10.6047   38.1868   31.6669 C   0  0  0  0  0  0  0  0  0  0  0  0
   12.9345   37.6790   32.0282 C   0  0  0  0  0  0  0  0  0  0  0  0
    9.6377   38.0918   30.6489 O   0  0  0  0  0  0  0  0  0  0  0  0
   11.5760   37.0129   31.7056 C   0  0  0  0  0  0  0  0  0  0  0  0
   13.4909   37.2177   33.3233 N   0  0  0  0  0  0  0  0  0  0  0  0
   11.6233   36.3371   30.4684 O   0  0  0  0  0  0  0  0  0  0  0  0
   14.4765   36.3272   33.5727 C   0  0  0  0  0  0  0  0  0  0  0  0
   13.1182   37.6315   34.5685 C   0  0  0  0  0  0  0  0  0  0  0  0
   15.2066   35.6137   32.6739 N   0  0  0  0  0  0  0  0  0  0  0  0
   14.6736   36.2276   34.9182 C   0  0  0  0  0  0  0  0  0  0  0  0
   13.8227   37.0458   35.5781 N   0  0  0  0  0  0  0  0  0  0  0  0
   16.1638   34.7593   33.1548 C   0  0  0  0  0  0  0  0  0  0  0  0
   15.6517   35.3493   35.4131 C   0  0  0  0  0  0  0  0  0  0  0  0
   16.3792   34.6309   34.5043 N   0  0  0  0  0  0  0  0  0  0  0  0
   15.9002   35.1934   36.8090 N   0  0  0  0  0  0  0  0  0  0  0  0
    9.8237   44.9999   32.1458 H   0  0  0  0  0  0  0  0  0  0  0  0
   11.1114   46.2831   34.4957 H   0  0  0  0  0  0  0  0  0  0  0  0
   10.9077   46.9083   32.9445 H   0  0  0  0  0  0  0  0  0  0  0  0
    8.7215   45.6893   34.9652 H   0  0  0  0  0  0  0  0  0  0  0  0
    8.5287   46.7451   33.5278 H   0  0  0  0  0  0  0  0  0  0  0  0
    6.0001   43.1722   31.8619 H   0  0  0  0  0  0  0  0  0  0  0  0
    5.9802   44.2422   30.4409 H   0  0  0  0  0  0  0  0  0  0  0  0
    3.8972   43.0550   32.8686 H   0  0  0  0  0  0  0  0  0  0  0  0
    3.0102   47.8870   32.2058 H   0  0  0  0  0  0  0  0  0  0  0  0
    1.8363   44.0691   33.7376 H   0  0  0  0  0  0  0  0  0  0  0  0
    1.4001   46.4830   33.4211 H   0  0  0  0  0  0  0  0  0  0  0  0
    9.8242   40.7213   31.7569 H   0  0  0  0  0  0  0  0  0  0  0  0
   11.3870   41.5416   31.4666 H   0  0  0  0  0  0  0  0  0  0  0  0
   11.6986   39.5013   30.3466 H   0  0  0  0  0  0  0  0  0  0  0  0
   10.1095   38.2772   32.6629 H   0  0  0  0  0  0  0  0  0  0  0  0
   13.6672   37.4544   31.2212 H   0  0  0  0  0  0  0  0  0  0  0  0
    8.9777   37.4161   30.9535 H   0  0  0  0  0  0  0  0  0  0  0  0
   11.2860   36.3041   32.5177 H   0  0  0  0  0  0  0  0  0  0  0  0
   10.8688   35.6919   30.4657 H   0  0  0  0  0  0  0  0  0  0  0  0
   12.3355   38.3586   34.7439 H   0  0  0  0  0  0  0  0  0  0  0  0
   16.7572   34.1786   32.4621 H   0  0  0  0  0  0  0  0  0  0  0  0
   15.3530   35.7358   37.5138 H   0  0  0  0  0  0  0  0  0  0  0  0
   16.6361   34.5315   37.1415 H   0  0  0  0  0  0  0  0  0  0  0  0
  1  2  2  0
  1  3  1  0
  3  4  1  0
  4  5  1  0
  6  1  1  0
  7  6  1  0
  6  8  1  0
  8  9  1  0
  9 10  1  0
  9 11  2  0
 10 12  1  0
 12 13  1  0
 13 14  2  0
 15 13  1  0
 14 16  1  0
 14 17  1  0
 18 15  2  0
 16 19  1  0
 16 20  2  0
 17 21  2  0
 21 18  1  0
  4 22  2  0
  4 23  1  0
 24 23  1  0
 24 25  1  0
 25 26  1  0
 25 27  1  0
 26 28  1  0
 27 29  1  0
 27 30  1  0
 30 28  1  0
 28 31  1  0
 30 32  1  0
 33 31  1  0
 34 31  1  0
 35 33  2  0
 33 36  1  0
 37 34  2  0
 38 35  1  0
 36 39  2  0
 36 37  1  0
 40 38  2  0
 40 39  1  0
 39 41  1  0
  6 42  1  6
  7 43  1  0
  7 44  1  0
  8 45  1  0
  8 46  1  0
 12 47  1  0
 12 48  1  0
 15 49  1  0
 17 50  1  0
 18 51  1  0
 21 52  1  0
 24 53  1  0
 24 54  1  0
 25 55  1  0
 27 56  1  0
 28 57  1  0
 29 58  1  0
 30 59  1  0
 32 60  1  0
 34 61  1  0
 38 62  1  0
 41 63  1  0
 41 64  1  0
M  CHG  3   5  -1  16   1  19  -1
M  END
>  <EmbedRMS>  (154) 
0.08895352429903572

$$$$

     RDKit          3D

 64 67  0  0  0  0  0  0  0  0999 V2000
   10.2839   43.7735   33.8088 C   0  0  0  0  0  0  0  0  0  0  0  0
   11.4130   43.5861   34.3501 O   0  0  0  0  0  0  0  0  0  0  0  0
    9.3649   42.7326   33.7058 O   0  0  0  0  0  0  0  0  0  0  0  0
    9.8848   41.2345   34.2854 P   0  0  0  0  0  5  0  0  0  0  0  0
   10.3667   41.4667   35.8756 O   0  0  0  0  0  1  0  0  0  0  0  0
    9.9648   45.1065   33.2309 C   0  0  2  0  0  0  0  0  0  0  0  0
   11.0623   46.0401   33.4947 N   0  0  0  0  0  0  0  0  0  0  0  0
    8.6055   45.6506   33.7246 C   0  0  0  0  0  0  0  0  0  0  0  0
    8.5633   45.8922   35.2047 C   0  0  0  0  0  0  0  0  0  0  0  0
    8.3720   44.8149   36.0780 O   0  0  0  0  0  0  0  0  0  0  0  0
    8.7105   47.0631   35.6507 O   0  0  0  0  0  0  0  0  0  0  0  0
    8.2666   44.9695   37.4937 C   0  0  0  0  0  0  0  0  0  0  0  0
    9.5885   45.3863   38.1019 C   0  0  0  0  0  0  0  0  0  0  0  0
    9.6721   46.3521   39.1383 C   0  0  0  0  0  0  0  0  0  0  0  0
   10.7709   44.7922   37.6250 C   0  0  0  0  0  0  0  0  0  0  0  0
    8.4953   46.9051   39.7496 N   0  0  0  0  0  4  0  0  0  0  0  0
   10.9375   46.7592   39.5981 C   0  0  0  0  0  0  0  0  0  0  0  0
   12.0169   45.1954   38.1060 C   0  0  0  0  0  0  0  0  0  0  0  0
    7.4669   46.0779   40.1386 O   0  0  0  0  0  1  0  0  0  0  0  0
    8.4874   48.0948   40.1281 O   0  0  0  0  0  0  0  0  0  0  0  0
   12.1008   46.1867   39.0818 C   0  0  0  0  0  0  0  0  0  0  0  0
    8.8075   40.1915   34.2089 O   0  0  0  0  0  0  0  0  0  0  0  0
   11.2363   40.7924   33.3674 O   0  0  0  0  0  0  0  0  0  0  0  0
   10.9126   40.6864   31.9950 C   0  0  0  0  0  0  0  0  0  0  0  0
   11.5165   39.3800   31.4414 C   0  0  0  0  0  0  0  0  0  0  0  0
   12.7484   39.0889   32.0767 O   0  0  0  0  0  0  0  0  0  0  0  0
   10.6049   38.1877   31.6661 C   0  0  0  0  0  0  0  0  0  0  0  0
   12.9411   37.6831   32.0279 C   0  0  0  0  0  0  0  0  0  0  0  0
    9.6358   38.0931   30.6503 O   0  0  0  0  0  0  0  0  0  0  0  0
   11.5827   37.0181   31.6937 C   0  0  0  0  0  0  0  0  0  0  0  0
   13.4908   37.2178   33.3240 N   0  0  0  0  0  0  0  0  0  0  0  0
   11.6141   36.3182   30.4675 O   0  0  0  0  0  0  0  0  0  0  0  0
   14.4762   36.3270   33.5733 C   0  0  0  0  0  0  0  0  0  0  0  0
   13.1179   37.6317   34.5689 C   0  0  0  0  0  0  0  0  0  0  0  0
   15.2067   35.6141   32.6743 N   0  0  0  0  0  0  0  0  0  0  0  0
   14.6731   36.2273   34.9186 C   0  0  0  0  0  0  0  0  0  0  0  0
   13.8223   37.0456   35.5785 N   0  0  0  0  0  0  0  0  0  0  0  0
   16.1638   34.7595   33.1550 C   0  0  0  0  0  0  0  0  0  0  0  0
   15.6515   35.3491   35.4134 C   0  0  0  0  0  0  0  0  0  0  0  0
   16.3792   34.6310   34.5045 N   0  0  0  0  0  0  0  0  0  0  0  0
   15.9002   35.1933   36.8092 N   0  0  0  0  0  0  0  0  0  0  0  0
    9.8901   44.9688   32.1299 H   0  0  0  0  0  0  0  0  0  0  0  0
   11.1304   46.2340   34.5206 H   0  0  0  0  0  0  0  0  0  0  0  0
   10.8514   46.9477   33.0193 H   0  0  0  0  0  0  0  0  0  0  0  0
    7.7990   44.9340   33.4573 H   0  0  0  0  0  0  0  0  0  0  0  0
    8.3789   46.5994   33.1907 H   0  0  0  0  0  0  0  0  0  0  0  0
    7.9629   43.9984   37.9370 H   0  0  0  0  0  0  0  0  0  0  0  0
    7.4648   45.7083   37.6996 H   0  0  0  0  0  0  0  0  0  0  0  0
   10.7286   44.0228   36.8672 H   0  0  0  0  0  0  0  0  0  0  0  0
   11.0216   47.5033   40.3802 H   0  0  0  0  0  0  0  0  0  0  0  0
   12.9192   44.7404   37.7182 H   0  0  0  0  0  0  0  0  0  0  0  0
   13.0684   46.5004   39.4518 H   0  0  0  0  0  0  0  0  0  0  0  0
   11.3837   41.5437   31.4685 H   0  0  0  0  0  0  0  0  0  0  0  0
    9.8224   40.7209   31.7591 H   0  0  0  0  0  0  0  0  0  0  0  0
   11.6991   39.5069   30.3492 H   0  0  0  0  0  0  0  0  0  0  0  0
   10.1117   38.2721   32.6633 H   0  0  0  0  0  0  0  0  0  0  0  0
   13.6816   37.4638   31.2270 H   0  0  0  0  0  0  0  0  0  0  0  0
    9.0036   37.3828   30.9348 H   0  0  0  0  0  0  0  0  0  0  0  0
   11.2847   36.3042   32.4929 H   0  0  0  0  0  0  0  0  0  0  0  0
   11.8850   36.9592   29.7589 H   0  0  0  0  0  0  0  0  0  0  0  0
   12.3364   38.3600   34.7442 H   0  0  0  0  0  0  0  0  0  0  0  0
   16.7573   34.1791   32.4622 H   0  0  0  0  0  0  0  0  0  0  0  0
   16.6363   34.5317   37.1417 H   0  0  0  0  0  0  0  0  0  0  0  0
   15.3529   35.7356   37.5141 H   0  0  0  0  0  0  0  0  0  0  0  0
  1  2  2  0
  1  3  1  0
  3  4  1  0
  4  5  1  0
  6  1  1  0
  7  6  1  0
  6  8  1  0
  8  9  1  0
  9 10  1  0
  9 11  2  0
 10 12  1  0
 12 13  1  0
 13 14  2  0
 15 13  1  0
 14 16  1  0
 14 17  1  0
 18 15  2  0
 16 19  1  0
 16 20  2  0
 17 21  2  0
 21 18  1  0
  4 22  2  0
  4 23  1  0
 24 23  1  0
 24 25  1  0
 25 26  1  0
 25 27  1  0
 26 28  1  0
 27 29  1  0
 27 30  1  0
 30 28  1  0
 28 31  1  0
 30 32  1  0
 33 31  1  0
 34 31  1  0
 35 33  2  0
 33 36  1  0
 37 34  2  0
 38 35  1  0
 36 39  2  0
 36 37  1  0
 40 38  2  0
 40 39  1  0
 39 41  1  0
  6 42  1  6
  7 43  1  0
  7 44  1  0
  8 45  1  0
  8 46  1  0
 12 47  1  0
 12 48  1  0
 15 49  1  0
 17 50  1  0
 18 51  1  0
 21 52  1  0
 24 53  1  0
 24 54  1  0
 25 55  1  0
 27 56  1  0
 28 57  1  0
 29 58  1  0
 30 59  1  0
 32 60  1  0
 34 61  1  0
 38 62  1  0
 41 63  1  0
 41 64  1  0
M  CHG  3   5  -1  16   1  19  -1
M  END
>  <EmbedRMS>  (155) 
0.0878632230303053

$$$$

     RDKit          3D

 64 67  0  0  0  0  0  0  0  0999 V2000
   10.2831   43.7754   33.8074 C   0  0  0  0  0  0  0  0  0  0  0  0
   11.4086   43.5916   34.3577 O   0  0  0  0  0  0  0  0  0  0  0  0
    9.3669   42.7318   33.7011 O   0  0  0  0  0  0  0  0  0  0  0  0
    9.8865   41.2345   34.2838 P   0  0  0  0  0  5  0  0  0  0  0  0
   10.3666   41.4695   35.8744 O   0  0  0  0  0  1  0  0  0  0  0  0
    9.9535   45.1114   33.2435 C   0  0  2  0  0  0  0  0  0  0  0  0
   11.0724   46.0264   33.4850 N   0  0  0  0  0  0  0  0  0  0  0  0
    8.6393   45.6425   33.8544 C   0  0  0  0  0  0  0  0  0  0  0  0
    8.2451   46.9571   33.2567 C   0  0  0  0  0  0  0  0  0  0  0  0
    8.3836   48.1264   34.0127 O   0  0  0  0  0  0  0  0  0  0  0  0
    7.8129   47.0020   32.0724 O   0  0  0  0  0  0  0  0  0  0  0  0
    8.1306   49.4279   33.4876 C   0  0  0  0  0  0  0  0  0  0  0  0
    9.2187   49.8297   32.5183 C   0  0  0  0  0  0  0  0  0  0  0  0
   10.5932   49.8641   32.8870 C   0  0  0  0  0  0  0  0  0  0  0  0
    8.8563   50.1279   31.1916 C   0  0  0  0  0  0  0  0  0  0  0  0
   11.0391   49.5745   34.2262 N   0  0  0  0  0  4  0  0  0  0  0  0
   11.5546   50.1683   31.9060 C   0  0  0  0  0  0  0  0  0  0  0  0
    9.8269   50.4418   30.2403 C   0  0  0  0  0  0  0  0  0  0  0  0
   12.3046   49.0761   34.4357 O   0  0  0  0  0  1  0  0  0  0  0  0
   10.3612   49.9152   35.2166 O   0  0  0  0  0  0  0  0  0  0  0  0
   11.1733   50.4579   30.5956 C   0  0  0  0  0  0  0  0  0  0  0  0
    8.8091   40.1914   34.2077 O   0  0  0  0  0  0  0  0  0  0  0  0
   11.2390   40.7910   33.3682 O   0  0  0  0  0  0  0  0  0  0  0  0
   10.9194   40.6896   31.9946 C   0  0  0  0  0  0  0  0  0  0  0  0
   11.5171   39.3801   31.4397 C   0  0  0  0  0  0  0  0  0  0  0  0
   12.7478   39.0861   32.0734 O   0  0  0  0  0  0  0  0  0  0  0  0
   10.6031   38.1891   31.6666 C   0  0  0  0  0  0  0  0  0  0  0  0
   12.9335   37.6797   32.0280 C   0  0  0  0  0  0  0  0  0  0  0  0
    9.6397   38.0777   30.6456 O   0  0  0  0  0  0  0  0  0  0  0  0
   11.5739   37.0154   31.7057 C   0  0  0  0  0  0  0  0  0  0  0  0
   13.4903   37.2178   33.3231 N   0  0  0  0  0  0  0  0  0  0  0  0
   11.6211   36.3376   30.4695 O   0  0  0  0  0  0  0  0  0  0  0  0
   14.4761   36.3273   33.5725 C   0  0  0  0  0  0  0  0  0  0  0  0
   13.1179   37.6317   34.5684 C   0  0  0  0  0  0  0  0  0  0  0  0
   15.2063   35.6139   32.6737 N   0  0  0  0  0  0  0  0  0  0  0  0
   14.6733   36.2277   34.9180 C   0  0  0  0  0  0  0  0  0  0  0  0
   13.8226   37.0459   35.5779 N   0  0  0  0  0  0  0  0  0  0  0  0
   16.1636   34.7594   33.1546 C   0  0  0  0  0  0  0  0  0  0  0  0
   15.6515   35.3494   35.4129 C   0  0  0  0  0  0  0  0  0  0  0  0
   16.3791   34.6311   34.5041 N   0  0  0  0  0  0  0  0  0  0  0  0
   15.9001   35.1935   36.8088 N   0  0  0  0  0  0  0  0  0  0  0  0
    9.8210   44.9852   32.1457 H   0  0  0  0  0  0  0  0  0  0  0  0
   10.9516   46.8744   32.8853 H   0  0  0  0  0  0  0  0  0  0  0  0
   11.0649   46.3410   34.4833 H   0  0  0  0  0  0  0  0  0  0  0  0
    7.8177   44.9163   33.6699 H   0  0  0  0  0  0  0  0  0  0  0  0
    8.7478   45.7546   34.9556 H   0  0  0  0  0  0  0  0  0  0  0  0
    8.0846   50.1599   34.3192 H   0  0  0  0  0  0  0  0  0  0  0  0
    7.1261   49.4422   33.0099 H   0  0  0  0  0  0  0  0  0  0  0  0
    7.8175   50.1057   30.8857 H   0  0  0  0  0  0  0  0  0  0  0  0
   12.6066   50.1962   32.1597 H   0  0  0  0  0  0  0  0  0  0  0  0
    9.5342   50.6659   29.2226 H   0  0  0  0  0  0  0  0  0  0  0  0
   11.9248   50.6972   29.8542 H   0  0  0  0  0  0  0  0  0  0  0  0
   11.4008   41.5437   31.4721 H   0  0  0  0  0  0  0  0  0  0  0  0
    9.8315   40.7396   31.7549 H   0  0  0  0  0  0  0  0  0  0  0  0
   11.6983   39.5042   30.3470 H   0  0  0  0  0  0  0  0  0  0  0  0
   10.1090   38.2632   32.6649 H   0  0  0  0  0  0  0  0  0  0  0  0
   13.6656   37.4541   31.2207 H   0  0  0  0  0  0  0  0  0  0  0  0
    8.8965   38.6900   30.8852 H   0  0  0  0  0  0  0  0  0  0  0  0
   11.2846   36.3060   32.5175 H   0  0  0  0  0  0  0  0  0  0  0  0
   10.8523   35.7095   30.4590 H   0  0  0  0  0  0  0  0  0  0  0  0
   12.3353   38.3588   34.7439 H   0  0  0  0  0  0  0  0  0  0  0  0
   16.7570   34.1788   32.4619 H   0  0  0  0  0  0  0  0  0  0  0  0
   15.3529   35.7359   37.5136 H   0  0  0  0  0  0  0  0  0  0  0  0
   16.6360   34.5317   37.1413 H   0  0  0  0  0  0  0  0  0  0  0  0
  1  2  2  0
  1  3  1  0
  3  4  1  0
  4  5  1  0
  6  1  1  0
  7  6  1  0
  6  8  1  0
  8  9  1  0
  9 10  1  0
  9 11  2  0
 10 12  1  0
 12 13  1  0
 13 14  2  0
 15 13  1  0
 14 16  1  0
 14 17  1  0
 18 15  2  0
 16 19  1  0
 16 20  2  0
 17 21  2  0
 21 18  1  0
  4 22  2  0
  4 23  1  0
 24 23  1  0
 24 25  1  0
 25 26  1  0
 25 27  1  0
 26 28  1  0
 27 29  1  0
 27 30  1  0
 30 28  1  0
 28 31  1  0
 30 32  1  0
 33 31  1  0
 34 31  1  0
 35 33  2  0
 33 36  1  0
 37 34  2  0
 38 35  1  0
 36 39  2  0
 36 37  1  0
 40 38  2  0
 40 39  1  0
 39 41  1  0
  6 42  1  6
  7 43  1  0
  7 44  1  0
  8 45  1  0
  8 46  1  0
 12 47  1  0
 12 48  1  0
 15 49  1  0
 17 50  1  0
 18 51  1  0
 21 52  1  0
 24 53  1  0
 24 54  1  0
 25 55  1  0
 27 56  1  0
 28 57  1  0
 29 58  1  0
 30 59  1  0
 32 60  1  0
 34 61  1  0
 38 62  1  0
 41 63  1  0
 41 64  1  0
M  CHG  3   5  -1  16   1  19  -1
M  END
>  <EmbedRMS>  (156) 
0.08914076776904921

$$$$

     RDKit          3D

 64 67  0  0  0  0  0  0  0  0999 V2000
   10.2810   43.7758   33.8097 C   0  0  0  0  0  0  0  0  0  0  0  0
   11.4070   43.5917   34.3593 O   0  0  0  0  0  0  0  0  0  0  0  0
    9.3686   42.7297   33.6996 O   0  0  0  0  0  0  0  0  0  0  0  0
    9.8871   41.2335   34.2838 P   0  0  0  0  0  5  0  0  0  0  0  0
   10.3665   41.4695   35.8745 O   0  0  0  0  0  1  0  0  0  0  0  0
    9.9524   45.1157   33.2451 C   0  0  2  0  0  0  0  0  0  0  0  0
   11.0744   46.0261   33.4814 N   0  0  0  0  0  0  0  0  0  0  0  0
    8.6541   45.6901   33.8541 C   0  0  0  0  0  0  0  0  0  0  0  0
    7.4413   44.9289   33.4124 C   0  0  0  0  0  0  0  0  0  0  0  0
    7.0867   44.9250   32.0589 O   0  0  0  0  0  0  0  0  0  0  0  0
    6.7573   44.2920   34.2597 O   0  0  0  0  0  0  0  0  0  0  0  0
    5.9484   44.2317   31.5512 C   0  0  0  0  0  0  0  0  0  0  0  0
    4.6673   44.8868   32.0143 C   0  0  0  0  0  0  0  0  0  0  0  0
    4.4201   46.2752   31.8387 C   0  0  0  0  0  0  0  0  0  0  0  0
    3.7084   44.0968   32.6750 C   0  0  0  0  0  0  0  0  0  0  0  0
    5.3519   47.1323   31.1538 N   0  0  0  0  0  4  0  0  0  0  0  0
    3.2379   46.8311   32.3616 C   0  0  0  0  0  0  0  0  0  0  0  0
    2.5355   44.6663   33.1718 C   0  0  0  0  0  0  0  0  0  0  0  0
    6.0013   46.7007   30.0208 O   0  0  0  0  0  1  0  0  0  0  0  0
    5.4606   48.3306   31.4868 O   0  0  0  0  0  0  0  0  0  0  0  0
    2.3030   46.0314   33.0198 C   0  0  0  0  0  0  0  0  0  0  0  0
    8.8092   40.1911   34.2076 O   0  0  0  0  0  0  0  0  0  0  0  0
   11.2394   40.7901   33.3683 O   0  0  0  0  0  0  0  0  0  0  0  0
   10.9197   40.6895   31.9947 C   0  0  0  0  0  0  0  0  0  0  0  0
   11.5171   39.3801   31.4395 C   0  0  0  0  0  0  0  0  0  0  0  0
   12.7479   39.0861   32.0731 O   0  0  0  0  0  0  0  0  0  0  0  0
   10.6031   38.1892   31.6666 C   0  0  0  0  0  0  0  0  0  0  0  0
   12.9335   37.6796   32.0279 C   0  0  0  0  0  0  0  0  0  0  0  0
    9.6396   38.0778   30.6456 O   0  0  0  0  0  0  0  0  0  0  0  0
   11.5739   37.0154   31.7057 C   0  0  0  0  0  0  0  0  0  0  0  0
   13.4903   37.2178   33.3230 N   0  0  0  0  0  0  0  0  0  0  0  0
   11.6210   36.3376   30.4695 O   0  0  0  0  0  0  0  0  0  0  0  0
   14.4761   36.3273   33.5725 C   0  0  0  0  0  0  0  0  0  0  0  0
   13.1178   37.6316   34.5684 C   0  0  0  0  0  0  0  0  0  0  0  0
   15.2063   35.6139   32.6737 N   0  0  0  0  0  0  0  0  0  0  0  0
   14.6733   36.2277   34.9179 C   0  0  0  0  0  0  0  0  0  0  0  0
   13.8225   37.0459   35.5779 N   0  0  0  0  0  0  0  0  0  0  0  0
   16.1636   34.7594   33.1546 C   0  0  0  0  0  0  0  0  0  0  0  0
   15.6515   35.3494   35.4129 C   0  0  0  0  0  0  0  0  0  0  0  0
   16.3791   34.6311   34.5041 N   0  0  0  0  0  0  0  0  0  0  0  0
   15.9001   35.1935   36.8088 N   0  0  0  0  0  0  0  0  0  0  0  0
    9.8239   44.9997   32.1458 H   0  0  0  0  0  0  0  0  0  0  0  0
   10.9075   46.9083   32.9446 H   0  0  0  0  0  0  0  0  0  0  0  0
   11.1112   46.2830   34.4957 H   0  0  0  0  0  0  0  0  0  0  0  0
    8.5279   46.7444   33.5266 H   0  0  0  0  0  0  0  0  0  0  0  0
    8.7217   45.6901   34.9649 H   0  0  0  0  0  0  0  0  0  0  0  0
    6.0023   43.1662   31.8663 H   0  0  0  0  0  0  0  0  0  0  0  0
    5.9815   44.2332   30.4427 H   0  0  0  0  0  0  0  0  0  0  0  0
    3.8729   43.0360   32.8185 H   0  0  0  0  0  0  0  0  0  0  0  0
    3.0313   47.8875   32.2441 H   0  0  0  0  0  0  0  0  0  0  0  0
    1.8081   44.0480   33.6818 H   0  0  0  0  0  0  0  0  0  0  0  0
    1.3942   46.4713   33.4099 H   0  0  0  0  0  0  0  0  0  0  0  0
   11.4011   41.5437   31.4726 H   0  0  0  0  0  0  0  0  0  0  0  0
    9.8317   40.7398   31.7550 H   0  0  0  0  0  0  0  0  0  0  0  0
   11.6982   39.5042   30.3469 H   0  0  0  0  0  0  0  0  0  0  0  0
   10.1090   38.2633   32.6649 H   0  0  0  0  0  0  0  0  0  0  0  0
   13.6655   37.4539   31.2207 H   0  0  0  0  0  0  0  0  0  0  0  0
    8.8968   38.6906   30.8849 H   0  0  0  0  0  0  0  0  0  0  0  0
   11.2845   36.3060   32.5175 H   0  0  0  0  0  0  0  0  0  0  0  0
   10.8522   35.7095   30.4590 H   0  0  0  0  0  0  0  0  0  0  0  0
   12.3352   38.3588   34.7439 H   0  0  0  0  0  0  0  0  0  0  0  0
   16.7570   34.1788   32.4619 H   0  0  0  0  0  0  0  0  0  0  0  0
   16.6359   34.5317   37.1413 H   0  0  0  0  0  0  0  0  0  0  0  0
   15.3529   35.7359   37.5136 H   0  0  0  0  0  0  0  0  0  0  0  0
  1  2  2  0
  1  3  1  0
  3  4  1  0
  4  5  1  0
  6  1  1  0
  7  6  1  0
  6  8  1  0
  8  9  1  0
  9 10  1  0
  9 11  2  0
 10 12  1  0
 12 13  1  0
 13 14  2  0
 15 13  1  0
 14 16  1  0
 14 17  1  0
 18 15  2  0
 16 19  1  0
 16 20  2  0
 17 21  2  0
 21 18  1  0
  4 22  2  0
  4 23  1  0
 24 23  1  0
 24 25  1  0
 25 26  1  0
 25 27  1  0
 26 28  1  0
 27 29  1  0
 27 30  1  0
 30 28  1  0
 28 31  1  0
 30 32  1  0
 33 31  1  0
 34 31  1  0
 35 33  2  0
 33 36  1  0
 37 34  2  0
 38 35  1  0
 36 39  2  0
 36 37  1  0
 40 38  2  0
 40 39  1  0
 39 41  1  0
  6 42  1  6
  7 43  1  0
  7 44  1  0
  8 45  1  0
  8 46  1  0
 12 47  1  0
 12 48  1  0
 15 49  1  0
 17 50  1  0
 18 51  1  0
 21 52  1  0
 24 53  1  0
 24 54  1  0
 25 55  1  0
 27 56  1  0
 28 57  1  0
 29 58  1  0
 30 59  1  0
 32 60  1  0
 34 61  1  0
 38 62  1  0
 41 63  1  0
 41 64  1  0
M  CHG  3   5  -1  16   1  19  -1
M  END
>  <EmbedRMS>  (157) 
0.08939461788613083

$$$$

     RDKit          3D

 64 67  0  0  0  0  0  0  0  0999 V2000
   10.2864   43.7709   33.8097 C   0  0  0  0  0  0  0  0  0  0  0  0
   11.4101   43.5817   34.3616 O   0  0  0  0  0  0  0  0  0  0  0  0
    9.3671   42.7306   33.7015 O   0  0  0  0  0  0  0  0  0  0  0  0
    9.8851   41.2327   34.2837 P   0  0  0  0  0  5  0  0  0  0  0  0
   10.3651   41.4675   35.8745 O   0  0  0  0  0  1  0  0  0  0  0  0
    9.9606   45.1125   33.2475 C   0  0  2  0  0  0  0  0  0  0  0  0
   11.0655   46.0479   33.4748 N   0  0  0  0  0  0  0  0  0  0  0  0
    8.6652   45.6565   33.8725 C   0  0  0  0  0  0  0  0  0  0  0  0
    8.2781   46.9657   33.2586 C   0  0  0  0  0  0  0  0  0  0  0  0
    8.7201   48.1568   33.8447 O   0  0  0  0  0  0  0  0  0  0  0  0
    7.5913   46.9830   32.2007 O   0  0  0  0  0  0  0  0  0  0  0  0
    8.3809   49.4481   33.3425 C   0  0  0  0  0  0  0  0  0  0  0  0
    6.9127   49.7391   33.5560 C   0  0  0  0  0  0  0  0  0  0  0  0
    6.2976   49.6419   34.8348 C   0  0  0  0  0  0  0  0  0  0  0  0
    6.1255   50.0771   32.4397 C   0  0  0  0  0  0  0  0  0  0  0  0
    7.0446   49.3153   36.0213 N   0  0  0  0  0  4  0  0  0  0  0  0
    4.9114   49.8529   34.9441 C   0  0  0  0  0  0  0  0  0  0  0  0
    4.7546   50.2980   32.5748 C   0  0  0  0  0  0  0  0  0  0  0  0
    6.4298   48.6532   37.0591 O   0  0  0  0  0  1  0  0  0  0  0  0
    8.1958   49.7640   36.1958 O   0  0  0  0  0  0  0  0  0  0  0  0
    4.1480   50.1814   33.8234 C   0  0  0  0  0  0  0  0  0  0  0  0
    8.8075   40.1901   34.2072 O   0  0  0  0  0  0  0  0  0  0  0  0
   11.2381   40.7897   33.3686 O   0  0  0  0  0  0  0  0  0  0  0  0
   10.9194   40.6894   31.9948 C   0  0  0  0  0  0  0  0  0  0  0  0
   11.5171   39.3800   31.4396 C   0  0  0  0  0  0  0  0  0  0  0  0
   12.7479   39.0861   32.0733 O   0  0  0  0  0  0  0  0  0  0  0  0
   10.6031   38.1890   31.6666 C   0  0  0  0  0  0  0  0  0  0  0  0
   12.9335   37.6796   32.0279 C   0  0  0  0  0  0  0  0  0  0  0  0
    9.6397   38.0776   30.6456 O   0  0  0  0  0  0  0  0  0  0  0  0
   11.5739   37.0153   31.7057 C   0  0  0  0  0  0  0  0  0  0  0  0
   13.4903   37.2178   33.3231 N   0  0  0  0  0  0  0  0  0  0  0  0
   11.6211   36.3376   30.4695 O   0  0  0  0  0  0  0  0  0  0  0  0
   14.4761   36.3273   33.5725 C   0  0  0  0  0  0  0  0  0  0  0  0
   13.1179   37.6316   34.5684 C   0  0  0  0  0  0  0  0  0  0  0  0
   15.2063   35.6139   32.6737 N   0  0  0  0  0  0  0  0  0  0  0  0
   14.6734   36.2277   34.9179 C   0  0  0  0  0  0  0  0  0  0  0  0
   13.8225   37.0459   35.5779 N   0  0  0  0  0  0  0  0  0  0  0  0
   16.1636   34.7594   33.1546 C   0  0  0  0  0  0  0  0  0  0  0  0
   15.6515   35.3494   35.4129 C   0  0  0  0  0  0  0  0  0  0  0  0
   16.3791   34.6311   34.5041 N   0  0  0  0  0  0  0  0  0  0  0  0
   15.9001   35.1935   36.8088 N   0  0  0  0  0  0  0  0  0  0  0  0
    9.8090   44.9958   32.1514 H   0  0  0  0  0  0  0  0  0  0  0  0
   11.9220   45.7018   32.9831 H   0  0  0  0  0  0  0  0  0  0  0  0
   11.2750   46.1190   34.4982 H   0  0  0  0  0  0  0  0  0  0  0  0
    7.8356   44.9319   33.7185 H   0  0  0  0  0  0  0  0  0  0  0  0
    8.7974   45.7912   34.9686 H   0  0  0  0  0  0  0  0  0  0  0  0
    8.9876   50.2159   33.8647 H   0  0  0  0  0  0  0  0  0  0  0  0
    8.6598   49.5053   32.2673 H   0  0  0  0  0  0  0  0  0  0  0  0
    6.5708   50.1588   31.4558 H   0  0  0  0  0  0  0  0  0  0  0  0
    4.4206   49.7791   35.9062 H   0  0  0  0  0  0  0  0  0  0  0  0
    4.1600   50.5536   31.7071 H   0  0  0  0  0  0  0  0  0  0  0  0
    3.0834   50.3491   33.9245 H   0  0  0  0  0  0  0  0  0  0  0  0
    9.8316   40.7397   31.7544 H   0  0  0  0  0  0  0  0  0  0  0  0
   11.4014   41.5436   31.4731 H   0  0  0  0  0  0  0  0  0  0  0  0
   11.6982   39.5042   30.3470 H   0  0  0  0  0  0  0  0  0  0  0  0
   10.1090   38.2631   32.6649 H   0  0  0  0  0  0  0  0  0  0  0  0
   13.6656   37.4540   31.2207 H   0  0  0  0  0  0  0  0  0  0  0  0
    8.8965   38.6899   30.8852 H   0  0  0  0  0  0  0  0  0  0  0  0
   11.2846   36.3059   32.5175 H   0  0  0  0  0  0  0  0  0  0  0  0
   10.8524   35.7094   30.4590 H   0  0  0  0  0  0  0  0  0  0  0  0
   12.3353   38.3588   34.7439 H   0  0  0  0  0  0  0  0  0  0  0  0
   16.7570   34.1788   32.4619 H   0  0  0  0  0  0  0  0  0  0  0  0
   15.3529   35.7359   37.5136 H   0  0  0  0  0  0  0  0  0  0  0  0
   16.6360   34.5317   37.1413 H   0  0  0  0  0  0  0  0  0  0  0  0
  1  2  2  0
  1  3  1  0
  3  4  1  0
  4  5  1  0
  6  1  1  0
  7  6  1  0
  6  8  1  0
  8  9  1  0
  9 10  1  0
  9 11  2  0
 10 12  1  0
 12 13  1  0
 13 14  2  0
 15 13  1  0
 14 16  1  0
 14 17  1  0
 18 15  2  0
 16 19  1  0
 16 20  2  0
 17 21  2  0
 21 18  1  0
  4 22  2  0
  4 23  1  0
 24 23  1  0
 24 25  1  0
 25 26  1  0
 25 27  1  0
 26 28  1  0
 27 29  1  0
 27 30  1  0
 30 28  1  0
 28 31  1  0
 30 32  1  0
 33 31  1  0
 34 31  1  0
 35 33  2  0
 33 36  1  0
 37 34  2  0
 38 35  1  0
 36 39  2  0
 36 37  1  0
 40 38  2  0
 40 39  1  0
 39 41  1  0
  6 42  1  6
  7 43  1  0
  7 44  1  0
  8 45  1  0
  8 46  1  0
 12 47  1  0
 12 48  1  0
 15 49  1  0
 17 50  1  0
 18 51  1  0
 21 52  1  0
 24 53  1  0
 24 54  1  0
 25 55  1  0
 27 56  1  0
 28 57  1  0
 29 58  1  0
 30 59  1  0
 32 60  1  0
 34 61  1  0
 38 62  1  0
 41 63  1  0
 41 64  1  0
M  CHG  3   5  -1  16   1  19  -1
M  END
>  <EmbedRMS>  (158) 
0.08995998007188309

$$$$

     RDKit          3D

 64 67  0  0  0  0  0  0  0  0999 V2000
   10.2849   43.7725   33.8068 C   0  0  0  0  0  0  0  0  0  0  0  0
   11.4105   43.5874   34.3563 O   0  0  0  0  0  0  0  0  0  0  0  0
    9.3664   42.7313   33.7016 O   0  0  0  0  0  0  0  0  0  0  0  0
    9.8852   41.2342   34.2849 P   0  0  0  0  0  5  0  0  0  0  0  0
   10.3653   41.4697   35.8754 O   0  0  0  0  0  1  0  0  0  0  0  0
    9.9582   45.1107   33.2439 C   0  0  2  0  0  0  0  0  0  0  0  0
   11.0675   46.0366   33.4847 N   0  0  0  0  0  0  0  0  0  0  0  0
    8.6199   45.6578   33.7899 C   0  0  0  0  0  0  0  0  0  0  0  0
    8.6112   45.8077   35.2825 C   0  0  0  0  0  0  0  0  0  0  0  0
    8.9668   47.0349   35.8528 O   0  0  0  0  0  0  0  0  0  0  0  0
    8.3091   44.8224   36.0100 O   0  0  0  0  0  0  0  0  0  0  0  0
    8.9754   47.2694   37.2596 C   0  0  0  0  0  0  0  0  0  0  0  0
    7.5683   47.2742   37.8126 C   0  0  0  0  0  0  0  0  0  0  0  0
    6.5476   48.1117   37.2837 C   0  0  0  0  0  0  0  0  0  0  0  0
    7.2546   46.3867   38.8585 C   0  0  0  0  0  0  0  0  0  0  0  0
    6.8011   49.0525   36.2239 N   0  0  0  0  0  4  0  0  0  0  0  0
    5.2427   48.0063   37.7977 C   0  0  0  0  0  0  0  0  0  0  0  0
    5.9563   46.3108   39.3637 C   0  0  0  0  0  0  0  0  0  0  0  0
    5.7948   49.3859   35.3465 O   0  0  0  0  0  1  0  0  0  0  0  0
    7.8694   49.6960   36.1820 O   0  0  0  0  0  0  0  0  0  0  0  0
    4.9515   47.1154   38.8313 C   0  0  0  0  0  0  0  0  0  0  0  0
    8.8080   40.1911   34.2084 O   0  0  0  0  0  0  0  0  0  0  0  0
   11.2380   40.7910   33.3698 O   0  0  0  0  0  0  0  0  0  0  0  0
   10.9185   40.6906   31.9963 C   0  0  0  0  0  0  0  0  0  0  0  0
   11.5174   39.3824   31.4413 C   0  0  0  0  0  0  0  0  0  0  0  0
   12.7494   39.0893   32.0757 O   0  0  0  0  0  0  0  0  0  0  0  0
   10.6036   38.1899   31.6660 C   0  0  0  0  0  0  0  0  0  0  0  0
   12.9401   37.6834   32.0276 C   0  0  0  0  0  0  0  0  0  0  0  0
    9.6376   38.0785   30.6474 O   0  0  0  0  0  0  0  0  0  0  0  0
   11.5803   37.0204   31.6937 C   0  0  0  0  0  0  0  0  0  0  0  0
   13.4902   37.2177   33.3237 N   0  0  0  0  0  0  0  0  0  0  0  0
   11.6118   36.3193   30.4680 O   0  0  0  0  0  0  0  0  0  0  0  0
   14.4758   36.3271   33.5731 C   0  0  0  0  0  0  0  0  0  0  0  0
   13.1176   37.6317   34.5688 C   0  0  0  0  0  0  0  0  0  0  0  0
   15.2064   35.6142   32.6742 N   0  0  0  0  0  0  0  0  0  0  0  0
   14.6729   36.2274   34.9184 C   0  0  0  0  0  0  0  0  0  0  0  0
   13.8221   37.0457   35.5783 N   0  0  0  0  0  0  0  0  0  0  0  0
   16.1637   34.7597   33.1549 C   0  0  0  0  0  0  0  0  0  0  0  0
   15.6514   35.3493   35.4133 C   0  0  0  0  0  0  0  0  0  0  0  0
   16.3791   34.6312   34.5043 N   0  0  0  0  0  0  0  0  0  0  0  0
   15.9001   35.1934   36.8091 N   0  0  0  0  0  0  0  0  0  0  0  0
    9.8485   44.9837   32.1445 H   0  0  0  0  0  0  0  0  0  0  0  0
   11.1604   46.2300   34.5084 H   0  0  0  0  0  0  0  0  0  0  0  0
   10.8531   46.9458   33.0140 H   0  0  0  0  0  0  0  0  0  0  0  0
    7.7915   44.9804   33.4876 H   0  0  0  0  0  0  0  0  0  0  0  0
    8.4111   46.6463   33.3270 H   0  0  0  0  0  0  0  0  0  0  0  0
    9.6088   46.4994   37.7527 H   0  0  0  0  0  0  0  0  0  0  0  0
    9.4551   48.2481   37.4657 H   0  0  0  0  0  0  0  0  0  0  0  0
    8.0146   45.7396   39.2788 H   0  0  0  0  0  0  0  0  0  0  0  0
    4.4484   48.6298   37.4072 H   0  0  0  0  0  0  0  0  0  0  0  0
    5.7277   45.6209   40.1658 H   0  0  0  0  0  0  0  0  0  0  0  0
    3.9442   47.0514   39.2223 H   0  0  0  0  0  0  0  0  0  0  0  0
   11.3993   41.5455   31.4745 H   0  0  0  0  0  0  0  0  0  0  0  0
    9.8306   40.7396   31.7564 H   0  0  0  0  0  0  0  0  0  0  0  0
   11.6988   39.5092   30.3491 H   0  0  0  0  0  0  0  0  0  0  0  0
   10.1129   38.2588   32.6664 H   0  0  0  0  0  0  0  0  0  0  0  0
   13.6800   37.4629   31.2265 H   0  0  0  0  0  0  0  0  0  0  0  0
    8.8952   38.6908   30.8892 H   0  0  0  0  0  0  0  0  0  0  0  0
   11.2831   36.3060   32.4929 H   0  0  0  0  0  0  0  0  0  0  0  0
   11.8859   36.9590   29.7593 H   0  0  0  0  0  0  0  0  0  0  0  0
   12.3360   38.3600   34.7442 H   0  0  0  0  0  0  0  0  0  0  0  0
   16.7572   34.1793   32.4621 H   0  0  0  0  0  0  0  0  0  0  0  0
   16.6362   34.5318   37.1415 H   0  0  0  0  0  0  0  0  0  0  0  0
   15.3528   35.7356   37.5140 H   0  0  0  0  0  0  0  0  0  0  0  0
  1  2  2  0
  1  3  1  0
  3  4  1  0
  4  5  1  0
  6  1  1  0
  7  6  1  0
  6  8  1  0
  8  9  1  0
  9 10  1  0
  9 11  2  0
 10 12  1  0
 12 13  1  0
 13 14  2  0
 15 13  1  0
 14 16  1  0
 14 17  1  0
 18 15  2  0
 16 19  1  0
 16 20  2  0
 17 21  2  0
 21 18  1  0
  4 22  2  0
  4 23  1  0
 24 23  1  0
 24 25  1  0
 25 26  1  0
 25 27  1  0
 26 28  1  0
 27 29  1  0
 27 30  1  0
 30 28  1  0
 28 31  1  0
 30 32  1  0
 33 31  1  0
 34 31  1  0
 35 33  2  0
 33 36  1  0
 37 34  2  0
 38 35  1  0
 36 39  2  0
 36 37  1  0
 40 38  2  0
 40 39  1  0
 39 41  1  0
  6 42  1  6
  7 43  1  0
  7 44  1  0
  8 45  1  0
  8 46  1  0
 12 47  1  0
 12 48  1  0
 15 49  1  0
 17 50  1  0
 18 51  1  0
 21 52  1  0
 24 53  1  0
 24 54  1  0
 25 55  1  0
 27 56  1  0
 28 57  1  0
 29 58  1  0
 30 59  1  0
 32 60  1  0
 34 61  1  0
 38 62  1  0
 41 63  1  0
 41 64  1  0
M  CHG  3   5  -1  16   1  19  -1
M  END
>  <EmbedRMS>  (159) 
0.08820190124430174

$$$$

     RDKit          3D

 64 67  0  0  0  0  0  0  0  0999 V2000
   10.2822   43.7751   33.8087 C   0  0  0  0  0  0  0  0  0  0  0  0
   11.4052   43.5917   34.3647 O   0  0  0  0  0  0  0  0  0  0  0  0
    9.3713   42.7284   33.6944 O   0  0  0  0  0  0  0  0  0  0  0  0
    9.8867   41.2333   34.2832 P   0  0  0  0  0  5  0  0  0  0  0  0
   10.3657   41.4708   35.8739 O   0  0  0  0  0  1  0  0  0  0  0  0
    9.9443   45.1227   33.2631 C   0  0  2  0  0  0  0  0  0  0  0  0
   11.0795   46.0242   33.4668 N   0  0  0  0  0  0  0  0  0  0  0  0
    8.6968   45.7028   33.9627 C   0  0  0  0  0  0  0  0  0  0  0  0
    7.4508   44.9473   33.6145 C   0  0  0  0  0  0  0  0  0  0  0  0
    6.9150   44.0425   34.5378 O   0  0  0  0  0  0  0  0  0  0  0  0
    6.9147   45.1095   32.4842 O   0  0  0  0  0  0  0  0  0  0  0  0
    5.7532   43.2569   34.2795 C   0  0  0  0  0  0  0  0  0  0  0  0
    4.5153   44.1231   34.2385 C   0  0  0  0  0  0  0  0  0  0  0  0
    4.1822   45.0182   35.2908 C   0  0  0  0  0  0  0  0  0  0  0  0
    3.6903   44.0639   33.1002 C   0  0  0  0  0  0  0  0  0  0  0  0
    4.9743   45.1110   36.4892 N   0  0  0  0  0  4  0  0  0  0  0  0
    3.0542   45.8480   35.1517 C   0  0  0  0  0  0  0  0  0  0  0  0
    2.5676   44.8849   32.9902 C   0  0  0  0  0  0  0  0  0  0  0  0
    5.4902   43.9811   37.0797 O   0  0  0  0  0  1  0  0  0  0  0  0
    5.0677   46.1990   37.0944 O   0  0  0  0  0  0  0  0  0  0  0  0
    2.2529   45.7786   34.0115 C   0  0  0  0  0  0  0  0  0  0  0  0
    8.8078   40.1918   34.2080 O   0  0  0  0  0  0  0  0  0  0  0  0
   11.2379   40.7880   33.3681 O   0  0  0  0  0  0  0  0  0  0  0  0
   10.9162   40.6878   31.9950 C   0  0  0  0  0  0  0  0  0  0  0  0
   11.5264   39.3869   31.4361 C   0  0  0  0  0  0  0  0  0  0  0  0
   12.7495   39.0890   32.0814 O   0  0  0  0  0  0  0  0  0  0  0  0
   10.6124   38.1893   31.6460 C   0  0  0  0  0  0  0  0  0  0  0  0
   12.9374   37.6824   32.0300 C   0  0  0  0  0  0  0  0  0  0  0  0
    9.6150   38.0839   30.6538 O   0  0  0  0  0  0  0  0  0  0  0  0
   11.5793   37.0135   31.7013 C   0  0  0  0  0  0  0  0  0  0  0  0
   13.4906   37.2169   33.3242 N   0  0  0  0  0  0  0  0  0  0  0  0
   11.6215   36.3251   30.4725 O   0  0  0  0  0  0  0  0  0  0  0  0
   14.4763   36.3266   33.5731 C   0  0  0  0  0  0  0  0  0  0  0  0
   13.1181   37.6308   34.5693 C   0  0  0  0  0  0  0  0  0  0  0  0
   15.2066   35.6136   32.6740 N   0  0  0  0  0  0  0  0  0  0  0  0
   14.6736   36.2270   34.9185 C   0  0  0  0  0  0  0  0  0  0  0  0
   13.8228   37.0451   35.5787 N   0  0  0  0  0  0  0  0  0  0  0  0
   16.1639   34.7593   33.1547 C   0  0  0  0  0  0  0  0  0  0  0  0
   15.6519   35.3489   35.4132 C   0  0  0  0  0  0  0  0  0  0  0  0
   16.3795   34.6308   34.5042 N   0  0  0  0  0  0  0  0  0  0  0  0
   15.9006   35.1931   36.8090 N   0  0  0  0  0  0  0  0  0  0  0  0
    9.7462   45.0269   32.1712 H   0  0  0  0  0  0  0  0  0  0  0  0
   10.8355   46.9616   33.0715 H   0  0  0  0  0  0  0  0  0  0  0  0
   11.8812   45.6823   32.8868 H   0  0  0  0  0  0  0  0  0  0  0  0
    8.5525   46.7612   33.6545 H   0  0  0  0  0  0  0  0  0  0  0  0
    8.8413   45.6958   35.0656 H   0  0  0  0  0  0  0  0  0  0  0  0
    5.6415   42.4936   35.0761 H   0  0  0  0  0  0  0  0  0  0  0  0
    5.8967   42.6988   33.3280 H   0  0  0  0  0  0  0  0  0  0  0  0
    3.9220   43.3878   32.2864 H   0  0  0  0  0  0  0  0  0  0  0  0
    2.7843   46.5412   35.9384 H   0  0  0  0  0  0  0  0  0  0  0  0
    1.9437   44.8324   32.1072 H   0  0  0  0  0  0  0  0  0  0  0  0
    1.3837   46.4174   33.9217 H   0  0  0  0  0  0  0  0  0  0  0  0
    9.8261   40.7182   31.7578 H   0  0  0  0  0  0  0  0  0  0  0  0
   11.3840   41.5501   31.4735 H   0  0  0  0  0  0  0  0  0  0  0  0
   11.7292   39.5286   30.3500 H   0  0  0  0  0  0  0  0  0  0  0  0
   10.1141   38.2720   32.6379 H   0  0  0  0  0  0  0  0  0  0  0  0
   13.6726   37.4630   31.2239 H   0  0  0  0  0  0  0  0  0  0  0  0
   10.0535   38.1084   29.7638 H   0  0  0  0  0  0  0  0  0  0  0  0
   11.2645   36.3134   32.5107 H   0  0  0  0  0  0  0  0  0  0  0  0
   12.1546   35.5030   30.6315 H   0  0  0  0  0  0  0  0  0  0  0  0
   12.3361   38.3585   34.7449 H   0  0  0  0  0  0  0  0  0  0  0  0
   16.7574   34.1788   32.4619 H   0  0  0  0  0  0  0  0  0  0  0  0
   15.3533   35.7353   37.5139 H   0  0  0  0  0  0  0  0  0  0  0  0
   16.6366   34.5314   37.1415 H   0  0  0  0  0  0  0  0  0  0  0  0
  1  2  2  0
  1  3  1  0
  3  4  1  0
  4  5  1  0
  6  1  1  0
  7  6  1  0
  6  8  1  0
  8  9  1  0
  9 10  1  0
  9 11  2  0
 10 12  1  0
 12 13  1  0
 13 14  2  0
 15 13  1  0
 14 16  1  0
 14 17  1  0
 18 15  2  0
 16 19  1  0
 16 20  2  0
 17 21  2  0
 21 18  1  0
  4 22  2  0
  4 23  1  0
 24 23  1  0
 24 25  1  0
 25 26  1  0
 25 27  1  0
 26 28  1  0
 27 29  1  0
 27 30  1  0
 30 28  1  0
 28 31  1  0
 30 32  1  0
 33 31  1  0
 34 31  1  0
 35 33  2  0
 33 36  1  0
 37 34  2  0
 38 35  1  0
 36 39  2  0
 36 37  1  0
 40 38  2  0
 40 39  1  0
 39 41  1  0
  6 42  1  6
  7 43  1  0
  7 44  1  0
  8 45  1  0
  8 46  1  0
 12 47  1  0
 12 48  1  0
 15 49  1  0
 17 50  1  0
 18 51  1  0
 21 52  1  0
 24 53  1  0
 24 54  1  0
 25 55  1  0
 27 56  1  0
 28 57  1  0
 29 58  1  0
 30 59  1  0
 32 60  1  0
 34 61  1  0
 38 62  1  0
 41 63  1  0
 41 64  1  0
M  CHG  3   5  -1  16   1  19  -1
M  END
>  <EmbedRMS>  (160) 
0.08846175189307126

$$$$

     RDKit          3D

 64 67  0  0  0  0  0  0  0  0999 V2000
   10.2810   43.7759   33.8100 C   0  0  0  0  0  0  0  0  0  0  0  0
   11.4069   43.5918   34.3595 O   0  0  0  0  0  0  0  0  0  0  0  0
    9.3683   42.7299   33.7003 O   0  0  0  0  0  0  0  0  0  0  0  0
    9.8867   41.2338   34.2846 P   0  0  0  0  0  5  0  0  0  0  0  0
   10.3662   41.4696   35.8753 O   0  0  0  0  0  1  0  0  0  0  0  0
    9.9530   45.1154   33.2439 C   0  0  2  0  0  0  0  0  0  0  0  0
   11.0740   46.0264   33.4819 N   0  0  0  0  0  0  0  0  0  0  0  0
    8.6527   45.6898   33.8488 C   0  0  0  0  0  0  0  0  0  0  0  0
    7.4419   44.9214   33.4130 C   0  0  0  0  0  0  0  0  0  0  0  0
    7.1043   44.8801   32.0544 O   0  0  0  0  0  0  0  0  0  0  0  0
    6.7391   44.3204   34.2710 O   0  0  0  0  0  0  0  0  0  0  0  0
    6.0046   44.1286   31.5386 C   0  0  0  0  0  0  0  0  0  0  0  0
    4.7183   44.9306   31.4746 C   0  0  0  0  0  0  0  0  0  0  0  0
    3.6223   44.4796   30.6882 C   0  0  0  0  0  0  0  0  0  0  0  0
    4.5918   46.1450   32.1826 C   0  0  0  0  0  0  0  0  0  0  0  0
    3.6699   43.2363   29.9637 N   0  0  0  0  0  4  0  0  0  0  0  0
    2.4624   45.2714   30.6034 C   0  0  0  0  0  0  0  0  0  0  0  0
    3.4250   46.9053   32.0958 C   0  0  0  0  0  0  0  0  0  0  0  0
    4.2269   42.1140   30.5313 O   0  0  0  0  0  1  0  0  0  0  0  0
    3.0562   43.1187   28.8827 O   0  0  0  0  0  0  0  0  0  0  0  0
    2.3651   46.4727   31.3041 C   0  0  0  0  0  0  0  0  0  0  0  0
    8.8090   40.1911   34.2081 O   0  0  0  0  0  0  0  0  0  0  0  0
   11.2390   40.7908   33.3694 O   0  0  0  0  0  0  0  0  0  0  0  0
   10.9189   40.6906   31.9961 C   0  0  0  0  0  0  0  0  0  0  0  0
   11.5175   39.3824   31.4411 C   0  0  0  0  0  0  0  0  0  0  0  0
   12.7494   39.0892   32.0754 O   0  0  0  0  0  0  0  0  0  0  0  0
   10.6035   38.1900   31.6659 C   0  0  0  0  0  0  0  0  0  0  0  0
   12.9400   37.6833   32.0275 C   0  0  0  0  0  0  0  0  0  0  0  0
    9.6375   38.0786   30.6474 O   0  0  0  0  0  0  0  0  0  0  0  0
   11.5802   37.0204   31.6937 C   0  0  0  0  0  0  0  0  0  0  0  0
   13.4901   37.2177   33.3237 N   0  0  0  0  0  0  0  0  0  0  0  0
   11.6117   36.3193   30.4680 O   0  0  0  0  0  0  0  0  0  0  0  0
   14.4758   36.3271   33.5731 C   0  0  0  0  0  0  0  0  0  0  0  0
   13.1175   37.6317   34.5687 C   0  0  0  0  0  0  0  0  0  0  0  0
   15.2064   35.6141   32.6742 N   0  0  0  0  0  0  0  0  0  0  0  0
   14.6729   36.2274   34.9184 C   0  0  0  0  0  0  0  0  0  0  0  0
   13.8221   37.0458   35.5783 N   0  0  0  0  0  0  0  0  0  0  0  0
   16.1637   34.7597   33.1549 C   0  0  0  0  0  0  0  0  0  0  0  0
   15.6514   35.3493   35.4133 C   0  0  0  0  0  0  0  0  0  0  0  0
   16.3791   34.6312   34.5044 N   0  0  0  0  0  0  0  0  0  0  0  0
   15.9001   35.1935   36.8091 N   0  0  0  0  0  0  0  0  0  0  0  0
    9.8273   44.9983   32.1444 H   0  0  0  0  0  0  0  0  0  0  0  0
   10.9074   46.9085   32.9448 H   0  0  0  0  0  0  0  0  0  0  0  0
   11.1090   46.2834   34.4963 H   0  0  0  0  0  0  0  0  0  0  0  0
    8.5231   46.7415   33.5143 H   0  0  0  0  0  0  0  0  0  0  0  0
    8.7209   45.6972   34.9595 H   0  0  0  0  0  0  0  0  0  0  0  0
    6.2770   43.8139   30.5091 H   0  0  0  0  0  0  0  0  0  0  0  0
    5.8514   43.2101   32.1450 H   0  0  0  0  0  0  0  0  0  0  0  0
    5.3945   46.5254   32.7972 H   0  0  0  0  0  0  0  0  0  0  0  0
    1.6205   44.9467   30.0049 H   0  0  0  0  0  0  0  0  0  0  0  0
    3.3456   47.8373   32.6407 H   0  0  0  0  0  0  0  0  0  0  0  0
    1.4631   47.0672   31.2364 H   0  0  0  0  0  0  0  0  0  0  0  0
    9.8308   40.7398   31.7564 H   0  0  0  0  0  0  0  0  0  0  0  0
   11.3995   41.5455   31.4741 H   0  0  0  0  0  0  0  0  0  0  0  0
   11.6988   39.5092   30.3488 H   0  0  0  0  0  0  0  0  0  0  0  0
   10.1130   38.2590   32.6663 H   0  0  0  0  0  0  0  0  0  0  0  0
   13.6799   37.4626   31.2265 H   0  0  0  0  0  0  0  0  0  0  0  0
    8.8955   38.6915   30.8888 H   0  0  0  0  0  0  0  0  0  0  0  0
   11.2829   36.3061   32.4929 H   0  0  0  0  0  0  0  0  0  0  0  0
   11.8856   36.9589   29.7592 H   0  0  0  0  0  0  0  0  0  0  0  0
   12.3360   38.3600   34.7441 H   0  0  0  0  0  0  0  0  0  0  0  0
   16.7572   34.1793   32.4621 H   0  0  0  0  0  0  0  0  0  0  0  0
   16.6362   34.5318   37.1416 H   0  0  0  0  0  0  0  0  0  0  0  0
   15.3528   35.7357   37.5140 H   0  0  0  0  0  0  0  0  0  0  0  0
  1  2  2  0
  1  3  1  0
  3  4  1  0
  4  5  1  0
  6  1  1  0
  7  6  1  0
  6  8  1  0
  8  9  1  0
  9 10  1  0
  9 11  2  0
 10 12  1  0
 12 13  1  0
 13 14  2  0
 15 13  1  0
 14 16  1  0
 14 17  1  0
 18 15  2  0
 16 19  1  0
 16 20  2  0
 17 21  2  0
 21 18  1  0
  4 22  2  0
  4 23  1  0
 24 23  1  0
 24 25  1  0
 25 26  1  0
 25 27  1  0
 26 28  1  0
 27 29  1  0
 27 30  1  0
 30 28  1  0
 28 31  1  0
 30 32  1  0
 33 31  1  0
 34 31  1  0
 35 33  2  0
 33 36  1  0
 37 34  2  0
 38 35  1  0
 36 39  2  0
 36 37  1  0
 40 38  2  0
 40 39  1  0
 39 41  1  0
  6 42  1  6
  7 43  1  0
  7 44  1  0
  8 45  1  0
  8 46  1  0
 12 47  1  0
 12 48  1  0
 15 49  1  0
 17 50  1  0
 18 51  1  0
 21 52  1  0
 24 53  1  0
 24 54  1  0
 25 55  1  0
 27 56  1  0
 28 57  1  0
 29 58  1  0
 30 59  1  0
 32 60  1  0
 34 61  1  0
 38 62  1  0
 41 63  1  0
 41 64  1  0
M  CHG  3   5  -1  16   1  19  -1
M  END
>  <EmbedRMS>  (161) 
0.0882597289275161

$$$$

     RDKit          3D

 64 67  0  0  0  0  0  0  0  0999 V2000
   10.2842   43.7717   33.8120 C   0  0  0  0  0  0  0  0  0  0  0  0
   11.4081   43.5828   34.3637 O   0  0  0  0  0  0  0  0  0  0  0  0
    9.3691   42.7285   33.6996 O   0  0  0  0  0  0  0  0  0  0  0  0
    9.8859   41.2318   34.2837 P   0  0  0  0  0  5  0  0  0  0  0  0
   10.3651   41.4677   35.8746 O   0  0  0  0  0  1  0  0  0  0  0  0
    9.9583   45.1170   33.2496 C   0  0  2  0  0  0  0  0  0  0  0  0
   11.0686   46.0456   33.4710 N   0  0  0  0  0  0  0  0  0  0  0  0
    8.6774   45.7007   33.8750 C   0  0  0  0  0  0  0  0  0  0  0  0
    7.4526   44.9419   33.4626 C   0  0  0  0  0  0  0  0  0  0  0  0
    7.0656   44.9368   32.1176 O   0  0  0  0  0  0  0  0  0  0  0  0
    6.7886   44.3057   34.3263 O   0  0  0  0  0  0  0  0  0  0  0  0
    5.9352   44.2115   31.6341 C   0  0  0  0  0  0  0  0  0  0  0  0
    4.6329   44.8328   32.0947 C   0  0  0  0  0  0  0  0  0  0  0  0
    3.4765   44.0464   32.3447 C   0  0  0  0  0  0  0  0  0  0  0  0
    4.5562   46.2301   32.2556 C   0  0  0  0  0  0  0  0  0  0  0  0
    3.4519   42.6309   32.0943 N   0  0  0  0  0  4  0  0  0  0  0  0
    2.3155   44.6684   32.8360 C   0  0  0  0  0  0  0  0  0  0  0  0
    3.3873   46.8305   32.7248 C   0  0  0  0  0  0  0  0  0  0  0  0
    2.6801   41.8084   32.8824 O   0  0  0  0  0  1  0  0  0  0  0  0
    3.9497   42.1668   31.0479 O   0  0  0  0  0  0  0  0  0  0  0  0
    2.2733   46.0500   33.0265 C   0  0  0  0  0  0  0  0  0  0  0  0
    8.8077   40.1899   34.2070 O   0  0  0  0  0  0  0  0  0  0  0  0
   11.2387   40.7887   33.3687 O   0  0  0  0  0  0  0  0  0  0  0  0
   10.9197   40.6892   31.9949 C   0  0  0  0  0  0  0  0  0  0  0  0
   11.5172   39.3800   31.4394 C   0  0  0  0  0  0  0  0  0  0  0  0
   12.7479   39.0860   32.0730 O   0  0  0  0  0  0  0  0  0  0  0  0
   10.6031   38.1891   31.6665 C   0  0  0  0  0  0  0  0  0  0  0  0
   12.9335   37.6795   32.0278 C   0  0  0  0  0  0  0  0  0  0  0  0
    9.6396   38.0777   30.6456 O   0  0  0  0  0  0  0  0  0  0  0  0
   11.5738   37.0153   31.7057 C   0  0  0  0  0  0  0  0  0  0  0  0
   13.4903   37.2178   33.3230 N   0  0  0  0  0  0  0  0  0  0  0  0
   11.6210   36.3375   30.4694 O   0  0  0  0  0  0  0  0  0  0  0  0
   14.4761   36.3273   33.5724 C   0  0  0  0  0  0  0  0  0  0  0  0
   13.1178   37.6316   34.5683 C   0  0  0  0  0  0  0  0  0  0  0  0
   15.2063   35.6139   32.6737 N   0  0  0  0  0  0  0  0  0  0  0  0
   14.6733   36.2278   34.9179 C   0  0  0  0  0  0  0  0  0  0  0  0
   13.8225   37.0459   35.5779 N   0  0  0  0  0  0  0  0  0  0  0  0
   16.1636   34.7594   33.1546 C   0  0  0  0  0  0  0  0  0  0  0  0
   15.6515   35.3494   35.4129 C   0  0  0  0  0  0  0  0  0  0  0  0
   16.3791   34.6311   34.5041 N   0  0  0  0  0  0  0  0  0  0  0  0
   15.9001   35.1936   36.8088 N   0  0  0  0  0  0  0  0  0  0  0  0
    9.8094   45.0098   32.1522 H   0  0  0  0  0  0  0  0  0  0  0  0
   11.2822   46.1172   34.4936 H   0  0  0  0  0  0  0  0  0  0  0  0
   11.9217   45.6941   32.9769 H   0  0  0  0  0  0  0  0  0  0  0  0
    8.7662   45.7108   34.9843 H   0  0  0  0  0  0  0  0  0  0  0  0
    8.5539   46.7531   33.5395 H   0  0  0  0  0  0  0  0  0  0  0  0
    6.0265   43.1592   31.9774 H   0  0  0  0  0  0  0  0  0  0  0  0
    5.9569   44.2177   30.5245 H   0  0  0  0  0  0  0  0  0  0  0  0
    5.4086   46.8594   32.0317 H   0  0  0  0  0  0  0  0  0  0  0  0
    1.4285   44.0839   33.0451 H   0  0  0  0  0  0  0  0  0  0  0  0
    3.3467   47.9040   32.8582 H   0  0  0  0  0  0  0  0  0  0  0  0
    1.3690   46.5180   33.3936 H   0  0  0  0  0  0  0  0  0  0  0  0
    9.8319   40.7400   31.7545 H   0  0  0  0  0  0  0  0  0  0  0  0
   11.4018   41.5436   31.4735 H   0  0  0  0  0  0  0  0  0  0  0  0
   11.6982   39.5043   30.3468 H   0  0  0  0  0  0  0  0  0  0  0  0
   10.1090   38.2632   32.6648 H   0  0  0  0  0  0  0  0  0  0  0  0
   13.6655   37.4538   31.2206 H   0  0  0  0  0  0  0  0  0  0  0  0
    8.8967   38.6905   30.8849 H   0  0  0  0  0  0  0  0  0  0  0  0
   11.2845   36.3060   32.5175 H   0  0  0  0  0  0  0  0  0  0  0  0
   10.8522   35.7095   30.4589 H   0  0  0  0  0  0  0  0  0  0  0  0
   12.3352   38.3587   34.7439 H   0  0  0  0  0  0  0  0  0  0  0  0
   16.7570   34.1788   32.4619 H   0  0  0  0  0  0  0  0  0  0  0  0
   16.6360   34.5317   37.1413 H   0  0  0  0  0  0  0  0  0  0  0  0
   15.3529   35.7359   37.5136 H   0  0  0  0  0  0  0  0  0  0  0  0
  1  2  2  0
  1  3  1  0
  3  4  1  0
  4  5  1  0
  6  1  1  0
  7  6  1  0
  6  8  1  0
  8  9  1  0
  9 10  1  0
  9 11  2  0
 10 12  1  0
 12 13  1  0
 13 14  2  0
 15 13  1  0
 14 16  1  0
 14 17  1  0
 18 15  2  0
 16 19  1  0
 16 20  2  0
 17 21  2  0
 21 18  1  0
  4 22  2  0
  4 23  1  0
 24 23  1  0
 24 25  1  0
 25 26  1  0
 25 27  1  0
 26 28  1  0
 27 29  1  0
 27 30  1  0
 30 28  1  0
 28 31  1  0
 30 32  1  0
 33 31  1  0
 34 31  1  0
 35 33  2  0
 33 36  1  0
 37 34  2  0
 38 35  1  0
 36 39  2  0
 36 37  1  0
 40 38  2  0
 40 39  1  0
 39 41  1  0
  6 42  1  6
  7 43  1  0
  7 44  1  0
  8 45  1  0
  8 46  1  0
 12 47  1  0
 12 48  1  0
 15 49  1  0
 17 50  1  0
 18 51  1  0
 21 52  1  0
 24 53  1  0
 24 54  1  0
 25 55  1  0
 27 56  1  0
 28 57  1  0
 29 58  1  0
 30 59  1  0
 32 60  1  0
 34 61  1  0
 38 62  1  0
 41 63  1  0
 41 64  1  0
M  CHG  3   5  -1  16   1  19  -1
M  END
>  <EmbedRMS>  (162) 
0.09017588442904807

$$$$

     RDKit          3D

 64 67  0  0  0  0  0  0  0  0999 V2000
   10.2862   43.7711   33.8102 C   0  0  0  0  0  0  0  0  0  0  0  0
   11.4100   43.5818   34.3618 O   0  0  0  0  0  0  0  0  0  0  0  0
    9.3666   42.7311   33.7023 O   0  0  0  0  0  0  0  0  0  0  0  0
    9.8845   41.2331   34.2841 P   0  0  0  0  0  5  0  0  0  0  0  0
   10.3659   41.4675   35.8745 O   0  0  0  0  0  1  0  0  0  0  0  0
    9.9610   45.1122   33.2469 C   0  0  2  0  0  0  0  0  0  0  0  0
   11.0652   46.0483   33.4746 N   0  0  0  0  0  0  0  0  0  0  0  0
    8.6650   45.6572   33.8697 C   0  0  0  0  0  0  0  0  0  0  0  0
    8.2694   46.9552   33.2371 C   0  0  0  0  0  0  0  0  0  0  0  0
    7.6715   46.9476   31.9742 O   0  0  0  0  0  0  0  0  0  0  0  0
    8.5076   48.0424   33.8307 O   0  0  0  0  0  0  0  0  0  0  0  0
    7.2889   48.1411   31.2952 C   0  0  0  0  0  0  0  0  0  0  0  0
    6.6583   47.8262   29.9571 C   0  0  0  0  0  0  0  0  0  0  0  0
    6.7006   48.7527   28.8799 C   0  0  0  0  0  0  0  0  0  0  0  0
    5.9855   46.6009   29.7767 C   0  0  0  0  0  0  0  0  0  0  0  0
    7.2803   50.0612   29.0246 N   0  0  0  0  0  4  0  0  0  0  0  0
    6.1513   48.3884   27.6380 C   0  0  0  0  0  0  0  0  0  0  0  0
    5.4293   46.2678   28.5410 C   0  0  0  0  0  0  0  0  0  0  0  0
    7.8726   50.6729   27.9436 O   0  0  0  0  0  1  0  0  0  0  0  0
    7.0811   50.7312   30.0588 O   0  0  0  0  0  0  0  0  0  0  0  0
    5.5226   47.1544   27.4707 C   0  0  0  0  0  0  0  0  0  0  0  0
    8.8068   40.1905   34.2081 O   0  0  0  0  0  0  0  0  0  0  0  0
   11.2363   40.7907   33.3671 O   0  0  0  0  0  0  0  0  0  0  0  0
   10.9133   40.6860   31.9945 C   0  0  0  0  0  0  0  0  0  0  0  0
   11.5169   39.3797   31.4409 C   0  0  0  0  0  0  0  0  0  0  0  0
   12.7487   39.0887   32.0763 O   0  0  0  0  0  0  0  0  0  0  0  0
   10.6051   38.1876   31.6659 C   0  0  0  0  0  0  0  0  0  0  0  0
   12.9411   37.6829   32.0278 C   0  0  0  0  0  0  0  0  0  0  0  0
    9.6358   38.0930   30.6502 O   0  0  0  0  0  0  0  0  0  0  0  0
   11.5827   37.0179   31.6936 C   0  0  0  0  0  0  0  0  0  0  0  0
   13.4909   37.2177   33.3239 N   0  0  0  0  0  0  0  0  0  0  0  0
   11.6141   36.3179   30.4675 O   0  0  0  0  0  0  0  0  0  0  0  0
   14.4762   36.3270   33.5733 C   0  0  0  0  0  0  0  0  0  0  0  0
   13.1179   37.6316   34.5689 C   0  0  0  0  0  0  0  0  0  0  0  0
   15.2067   35.6140   32.6743 N   0  0  0  0  0  0  0  0  0  0  0  0
   14.6731   36.2272   34.9186 C   0  0  0  0  0  0  0  0  0  0  0  0
   13.8223   37.0456   35.5785 N   0  0  0  0  0  0  0  0  0  0  0  0
   16.1639   34.7594   33.1550 C   0  0  0  0  0  0  0  0  0  0  0  0
   15.6515   35.3491   35.4134 C   0  0  0  0  0  0  0  0  0  0  0  0
   16.3792   34.6310   34.5045 N   0  0  0  0  0  0  0  0  0  0  0  0
   15.9002   35.1934   36.8092 N   0  0  0  0  0  0  0  0  0  0  0  0
    9.8113   44.9938   32.1506 H   0  0  0  0  0  0  0  0  0  0  0  0
   11.2747   46.1187   34.4980 H   0  0  0  0  0  0  0  0  0  0  0  0
   11.9218   45.7026   32.9828 H   0  0  0  0  0  0  0  0  0  0  0  0
    7.8372   44.9314   33.7152 H   0  0  0  0  0  0  0  0  0  0  0  0
    8.7953   45.7950   34.9661 H   0  0  0  0  0  0  0  0  0  0  0  0
    8.2006   48.7592   31.1504 H   0  0  0  0  0  0  0  0  0  0  0  0
    6.5573   48.7035   31.9144 H   0  0  0  0  0  0  0  0  0  0  0  0
    5.8967   45.8914   30.5897 H   0  0  0  0  0  0  0  0  0  0  0  0
    6.1851   49.0752   26.8018 H   0  0  0  0  0  0  0  0  0  0  0  0
    4.9267   45.3178   28.4128 H   0  0  0  0  0  0  0  0  0  0  0  0
    5.0929   46.8919   26.5126 H   0  0  0  0  0  0  0  0  0  0  0  0
   11.3854   41.5434   31.4688 H   0  0  0  0  0  0  0  0  0  0  0  0
    9.8233   40.7210   31.7578 H   0  0  0  0  0  0  0  0  0  0  0  0
   11.6994   39.5065   30.3487 H   0  0  0  0  0  0  0  0  0  0  0  0
   10.1120   38.2722   32.6631 H   0  0  0  0  0  0  0  0  0  0  0  0
   13.6816   37.4633   31.2269 H   0  0  0  0  0  0  0  0  0  0  0  0
    9.0036   37.3828   30.9348 H   0  0  0  0  0  0  0  0  0  0  0  0
   11.2847   36.3040   32.4929 H   0  0  0  0  0  0  0  0  0  0  0  0
   11.8849   36.9589   29.7588 H   0  0  0  0  0  0  0  0  0  0  0  0
   12.3363   38.3598   34.7441 H   0  0  0  0  0  0  0  0  0  0  0  0
   16.7574   34.1790   32.4623 H   0  0  0  0  0  0  0  0  0  0  0  0
   16.6362   34.5317   37.1418 H   0  0  0  0  0  0  0  0  0  0  0  0
   15.3528   35.7356   37.5140 H   0  0  0  0  0  0  0  0  0  0  0  0
  1  2  2  0
  1  3  1  0
  3  4  1  0
  4  5  1  0
  6  1  1  0
  7  6  1  0
  6  8  1  0
  8  9  1  0
  9 10  1  0
  9 11  2  0
 10 12  1  0
 12 13  1  0
 13 14  2  0
 15 13  1  0
 14 16  1  0
 14 17  1  0
 18 15  2  0
 16 19  1  0
 16 20  2  0
 17 21  2  0
 21 18  1  0
  4 22  2  0
  4 23  1  0
 24 23  1  0
 24 25  1  0
 25 26  1  0
 25 27  1  0
 26 28  1  0
 27 29  1  0
 27 30  1  0
 30 28  1  0
 28 31  1  0
 30 32  1  0
 33 31  1  0
 34 31  1  0
 35 33  2  0
 33 36  1  0
 37 34  2  0
 38 35  1  0
 36 39  2  0
 36 37  1  0
 40 38  2  0
 40 39  1  0
 39 41  1  0
  6 42  1  6
  7 43  1  0
  7 44  1  0
  8 45  1  0
  8 46  1  0
 12 47  1  0
 12 48  1  0
 15 49  1  0
 17 50  1  0
 18 51  1  0
 21 52  1  0
 24 53  1  0
 24 54  1  0
 25 55  1  0
 27 56  1  0
 28 57  1  0
 29 58  1  0
 30 59  1  0
 32 60  1  0
 34 61  1  0
 38 62  1  0
 41 63  1  0
 41 64  1  0
M  CHG  3   5  -1  16   1  19  -1
M  END
>  <EmbedRMS>  (163) 
0.08838403709501087

$$$$

     RDKit          3D

 64 67  0  0  0  0  0  0  0  0999 V2000
   10.2816   43.7756   33.8096 C   0  0  0  0  0  0  0  0  0  0  0  0
   11.4045   43.5923   34.3657 O   0  0  0  0  0  0  0  0  0  0  0  0
    9.3716   42.7281   33.6943 O   0  0  0  0  0  0  0  0  0  0  0  0
    9.8871   41.2330   34.2830 P   0  0  0  0  0  5  0  0  0  0  0  0
   10.3661   41.4702   35.8738 O   0  0  0  0  0  1  0  0  0  0  0  0
    9.9445   45.1232   33.2620 C   0  0  2  0  0  0  0  0  0  0  0  0
   11.0797   46.0245   33.4666 N   0  0  0  0  0  0  0  0  0  0  0  0
    8.6951   45.7065   33.9564 C   0  0  0  0  0  0  0  0  0  0  0  0
    7.4517   44.9449   33.6120 C   0  0  0  0  0  0  0  0  0  0  0  0
    6.9362   44.0244   34.5282 O   0  0  0  0  0  0  0  0  0  0  0  0
    6.9061   45.1086   32.4866 O   0  0  0  0  0  0  0  0  0  0  0  0
    5.8514   43.1534   34.2193 C   0  0  0  0  0  0  0  0  0  0  0  0
    5.5730   42.1978   35.3586 C   0  0  0  0  0  0  0  0  0  0  0  0
    4.3085   41.5629   35.4974 C   0  0  0  0  0  0  0  0  0  0  0  0
    6.5913   41.8990   36.2870 C   0  0  0  0  0  0  0  0  0  0  0  0
    3.2505   41.7558   34.5412 N   0  0  0  0  0  4  0  0  0  0  0  0
    4.0816   40.7161   36.5968 C   0  0  0  0  0  0  0  0  0  0  0  0
    6.3505   41.0388   37.3586 C   0  0  0  0  0  0  0  0  0  0  0  0
    1.9374   41.6807   34.9458 O   0  0  0  0  0  1  0  0  0  0  0  0
    3.4997   41.8037   33.3191 O   0  0  0  0  0  0  0  0  0  0  0  0
    5.0955   40.4569   37.5192 C   0  0  0  0  0  0  0  0  0  0  0  0
    8.8080   40.1915   34.2079 O   0  0  0  0  0  0  0  0  0  0  0  0
   11.2382   40.7879   33.3679 O   0  0  0  0  0  0  0  0  0  0  0  0
   10.9162   40.6877   31.9949 C   0  0  0  0  0  0  0  0  0  0  0  0
   11.5263   39.3868   31.4360 C   0  0  0  0  0  0  0  0  0  0  0  0
   12.7494   39.0890   32.0814 O   0  0  0  0  0  0  0  0  0  0  0  0
   10.6123   38.1893   31.6461 C   0  0  0  0  0  0  0  0  0  0  0  0
   12.9373   37.6824   32.0300 C   0  0  0  0  0  0  0  0  0  0  0  0
    9.6149   38.0838   30.6539 O   0  0  0  0  0  0  0  0  0  0  0  0
   11.5792   37.0135   31.7014 C   0  0  0  0  0  0  0  0  0  0  0  0
   13.4906   37.2169   33.3242 N   0  0  0  0  0  0  0  0  0  0  0  0
   11.6215   36.3251   30.4725 O   0  0  0  0  0  0  0  0  0  0  0  0
   14.4763   36.3266   33.5731 C   0  0  0  0  0  0  0  0  0  0  0  0
   13.1181   37.6308   34.5693 C   0  0  0  0  0  0  0  0  0  0  0  0
   15.2065   35.6137   32.6740 N   0  0  0  0  0  0  0  0  0  0  0  0
   14.6735   36.2270   34.9185 C   0  0  0  0  0  0  0  0  0  0  0  0
   13.8228   37.0451   35.5787 N   0  0  0  0  0  0  0  0  0  0  0  0
   16.1639   34.7593   33.1547 C   0  0  0  0  0  0  0  0  0  0  0  0
   15.6519   35.3489   35.4132 C   0  0  0  0  0  0  0  0  0  0  0  0
   16.3794   34.6308   34.5042 N   0  0  0  0  0  0  0  0  0  0  0  0
   15.9006   35.1931   36.8090 N   0  0  0  0  0  0  0  0  0  0  0  0
    9.7491   45.0256   32.1697 H   0  0  0  0  0  0  0  0  0  0  0  0
   10.8368   46.9616   33.0700 H   0  0  0  0  0  0  0  0  0  0  0  0
   11.8823   45.6817   32.8885 H   0  0  0  0  0  0  0  0  0  0  0  0
    8.5496   46.7624   33.6406 H   0  0  0  0  0  0  0  0  0  0  0  0
    8.8389   45.7065   35.0593 H   0  0  0  0  0  0  0  0  0  0  0  0
    6.1011   42.5617   33.3121 H   0  0  0  0  0  0  0  0  0  0  0  0
    4.9534   43.7765   34.0187 H   0  0  0  0  0  0  0  0  0  0  0  0
    7.5763   42.3370   36.1936 H   0  0  0  0  0  0  0  0  0  0  0  0
    3.1220   40.2319   36.7260 H   0  0  0  0  0  0  0  0  0  0  0  0
    7.1395   40.8258   38.0684 H   0  0  0  0  0  0  0  0  0  0  0  0
    4.9107   39.7928   38.3537 H   0  0  0  0  0  0  0  0  0  0  0  0
    9.8260   40.7180   31.7578 H   0  0  0  0  0  0  0  0  0  0  0  0
   11.3839   41.5500   31.4733 H   0  0  0  0  0  0  0  0  0  0  0  0
   11.7291   39.5285   30.3499 H   0  0  0  0  0  0  0  0  0  0  0  0
   10.1141   38.2720   32.6380 H   0  0  0  0  0  0  0  0  0  0  0  0
   13.6725   37.4630   31.2239 H   0  0  0  0  0  0  0  0  0  0  0  0
   10.0533   38.1084   29.7639 H   0  0  0  0  0  0  0  0  0  0  0  0
   11.2644   36.3134   32.5107 H   0  0  0  0  0  0  0  0  0  0  0  0
   12.1545   35.5029   30.6316 H   0  0  0  0  0  0  0  0  0  0  0  0
   12.3361   38.3585   34.7449 H   0  0  0  0  0  0  0  0  0  0  0  0
   16.7573   34.1788   32.4619 H   0  0  0  0  0  0  0  0  0  0  0  0
   16.6366   34.5314   37.1415 H   0  0  0  0  0  0  0  0  0  0  0  0
   15.3533   35.7353   37.5139 H   0  0  0  0  0  0  0  0  0  0  0  0
  1  2  2  0
  1  3  1  0
  3  4  1  0
  4  5  1  0
  6  1  1  0
  7  6  1  0
  6  8  1  0
  8  9  1  0
  9 10  1  0
  9 11  2  0
 10 12  1  0
 12 13  1  0
 13 14  2  0
 15 13  1  0
 14 16  1  0
 14 17  1  0
 18 15  2  0
 16 19  1  0
 16 20  2  0
 17 21  2  0
 21 18  1  0
  4 22  2  0
  4 23  1  0
 24 23  1  0
 24 25  1  0
 25 26  1  0
 25 27  1  0
 26 28  1  0
 27 29  1  0
 27 30  1  0
 30 28  1  0
 28 31  1  0
 30 32  1  0
 33 31  1  0
 34 31  1  0
 35 33  2  0
 33 36  1  0
 37 34  2  0
 38 35  1  0
 36 39  2  0
 36 37  1  0
 40 38  2  0
 40 39  1  0
 39 41  1  0
  6 42  1  6
  7 43  1  0
  7 44  1  0
  8 45  1  0
  8 46  1  0
 12 47  1  0
 12 48  1  0
 15 49  1  0
 17 50  1  0
 18 51  1  0
 21 52  1  0
 24 53  1  0
 24 54  1  0
 25 55  1  0
 27 56  1  0
 28 57  1  0
 29 58  1  0
 30 59  1  0
 32 60  1  0
 34 61  1  0
 38 62  1  0
 41 63  1  0
 41 64  1  0
M  CHG  3   5  -1  16   1  19  -1
M  END
>  <EmbedRMS>  (164) 
0.08855529147634661

$$$$

     RDKit          3D

 64 67  0  0  0  0  0  0  0  0999 V2000
   10.2843   43.7718   33.8119 C   0  0  0  0  0  0  0  0  0  0  0  0
   11.4083   43.5831   34.3635 O   0  0  0  0  0  0  0  0  0  0  0  0
    9.3703   42.7281   33.6982 O   0  0  0  0  0  0  0  0  0  0  0  0
    9.8856   41.2320   34.2843 P   0  0  0  0  0  5  0  0  0  0  0  0
   10.3644   41.4685   35.8752 O   0  0  0  0  0  1  0  0  0  0  0  0
    9.9560   45.1186   33.2538 C   0  0  2  0  0  0  0  0  0  0  0  0
   11.0693   46.0451   33.4688 N   0  0  0  0  0  0  0  0  0  0  0  0
    8.6809   45.7038   33.8905 C   0  0  0  0  0  0  0  0  0  0  0  0
    7.4512   44.9509   33.4836 C   0  0  0  0  0  0  0  0  0  0  0  0
    6.8609   44.0583   34.3859 O   0  0  0  0  0  0  0  0  0  0  0  0
    6.9775   45.1037   32.3244 O   0  0  0  0  0  0  0  0  0  0  0  0
    5.7351   43.2451   34.0567 C   0  0  0  0  0  0  0  0  0  0  0  0
    4.4703   44.0672   33.9212 C   0  0  0  0  0  0  0  0  0  0  0  0
    3.4329   43.6998   33.0228 C   0  0  0  0  0  0  0  0  0  0  0  0
    4.3038   45.2118   34.7251 C   0  0  0  0  0  0  0  0  0  0  0  0
    3.4878   42.4854   32.2552 N   0  0  0  0  0  4  0  0  0  0  0  0
    2.3113   44.5366   32.8891 C   0  0  0  0  0  0  0  0  0  0  0  0
    3.1727   46.0182   34.5916 C   0  0  0  0  0  0  0  0  0  0  0  0
    2.9107   42.4364   31.0070 O   0  0  0  0  0  1  0  0  0  0  0  0
    3.8625   41.4197   32.7863 O   0  0  0  0  0  0  0  0  0  0  0  0
    2.1846   45.6883   33.6665 C   0  0  0  0  0  0  0  0  0  0  0  0
    8.8070   40.1905   34.2074 O   0  0  0  0  0  0  0  0  0  0  0  0
   11.2382   40.7885   33.3700 O   0  0  0  0  0  0  0  0  0  0  0  0
   10.9192   40.6901   31.9964 C   0  0  0  0  0  0  0  0  0  0  0  0
   11.5176   39.3822   31.4409 C   0  0  0  0  0  0  0  0  0  0  0  0
   12.7496   39.0891   32.0752 O   0  0  0  0  0  0  0  0  0  0  0  0
   10.6036   38.1899   31.6659 C   0  0  0  0  0  0  0  0  0  0  0  0
   12.9401   37.6832   32.0275 C   0  0  0  0  0  0  0  0  0  0  0  0
    9.6375   38.0785   30.6474 O   0  0  0  0  0  0  0  0  0  0  0  0
   11.5803   37.0203   31.6936 C   0  0  0  0  0  0  0  0  0  0  0  0
   13.4901   37.2177   33.3237 N   0  0  0  0  0  0  0  0  0  0  0  0
   11.6117   36.3192   30.4680 O   0  0  0  0  0  0  0  0  0  0  0  0
   14.4759   36.3271   33.5731 C   0  0  0  0  0  0  0  0  0  0  0  0
   13.1175   37.6317   34.5687 C   0  0  0  0  0  0  0  0  0  0  0  0
   15.2064   35.6141   32.6742 N   0  0  0  0  0  0  0  0  0  0  0  0
   14.6729   36.2274   34.9184 C   0  0  0  0  0  0  0  0  0  0  0  0
   13.8221   37.0457   35.5783 N   0  0  0  0  0  0  0  0  0  0  0  0
   16.1637   34.7597   33.1549 C   0  0  0  0  0  0  0  0  0  0  0  0
   15.6514   35.3493   35.4133 C   0  0  0  0  0  0  0  0  0  0  0  0
   16.3791   34.6312   34.5044 N   0  0  0  0  0  0  0  0  0  0  0  0
   15.9001   35.1935   36.8091 N   0  0  0  0  0  0  0  0  0  0  0  0
    9.7974   45.0138   32.1574 H   0  0  0  0  0  0  0  0  0  0  0  0
   11.9188   45.6921   32.9696 H   0  0  0  0  0  0  0  0  0  0  0  0
   11.2891   46.1163   34.4901 H   0  0  0  0  0  0  0  0  0  0  0  0
    8.7711   45.6985   34.9990 H   0  0  0  0  0  0  0  0  0  0  0  0
    8.5630   46.7622   33.5707 H   0  0  0  0  0  0  0  0  0  0  0  0
    5.9660   42.6980   33.1181 H   0  0  0  0  0  0  0  0  0  0  0  0
    5.5875   42.4993   34.8652 H   0  0  0  0  0  0  0  0  0  0  0  0
    5.0580   45.4926   35.4495 H   0  0  0  0  0  0  0  0  0  0  0  0
    1.5167   44.2803   32.1999 H   0  0  0  0  0  0  0  0  0  0  0  0
    3.0643   46.9034   35.2051 H   0  0  0  0  0  0  0  0  0  0  0  0
    1.3099   46.3174   33.5627 H   0  0  0  0  0  0  0  0  0  0  0  0
    9.8314   40.7398   31.7559 H   0  0  0  0  0  0  0  0  0  0  0  0
   11.4007   41.5453   31.4757 H   0  0  0  0  0  0  0  0  0  0  0  0
   11.6988   39.5092   30.3487 H   0  0  0  0  0  0  0  0  0  0  0  0
   10.1131   38.2589   32.6663 H   0  0  0  0  0  0  0  0  0  0  0  0
   13.6800   37.4623   31.2264 H   0  0  0  0  0  0  0  0  0  0  0  0
    8.8953   38.6911   30.8891 H   0  0  0  0  0  0  0  0  0  0  0  0
   11.2830   36.3059   32.4929 H   0  0  0  0  0  0  0  0  0  0  0  0
   11.8858   36.9588   29.7592 H   0  0  0  0  0  0  0  0  0  0  0  0
   12.3360   38.3600   34.7441 H   0  0  0  0  0  0  0  0  0  0  0  0
   16.7572   34.1793   32.4621 H   0  0  0  0  0  0  0  0  0  0  0  0
   16.6362   34.5318   37.1416 H   0  0  0  0  0  0  0  0  0  0  0  0
   15.3528   35.7357   37.5140 H   0  0  0  0  0  0  0  0  0  0  0  0
  1  2  2  0
  1  3  1  0
  3  4  1  0
  4  5  1  0
  6  1  1  0
  7  6  1  0
  6  8  1  0
  8  9  1  0
  9 10  1  0
  9 11  2  0
 10 12  1  0
 12 13  1  0
 13 14  2  0
 15 13  1  0
 14 16  1  0
 14 17  1  0
 18 15  2  0
 16 19  1  0
 16 20  2  0
 17 21  2  0
 21 18  1  0
  4 22  2  0
  4 23  1  0
 24 23  1  0
 24 25  1  0
 25 26  1  0
 25 27  1  0
 26 28  1  0
 27 29  1  0
 27 30  1  0
 30 28  1  0
 28 31  1  0
 30 32  1  0
 33 31  1  0
 34 31  1  0
 35 33  2  0
 33 36  1  0
 37 34  2  0
 38 35  1  0
 36 39  2  0
 36 37  1  0
 40 38  2  0
 40 39  1  0
 39 41  1  0
  6 42  1  6
  7 43  1  0
  7 44  1  0
  8 45  1  0
  8 46  1  0
 12 47  1  0
 12 48  1  0
 15 49  1  0
 17 50  1  0
 18 51  1  0
 21 52  1  0
 24 53  1  0
 24 54  1  0
 25 55  1  0
 27 56  1  0
 28 57  1  0
 29 58  1  0
 30 59  1  0
 32 60  1  0
 34 61  1  0
 38 62  1  0
 41 63  1  0
 41 64  1  0
M  CHG  3   5  -1  16   1  19  -1
M  END
>  <EmbedRMS>  (165) 
0.08921002716406141

$$$$

     RDKit          3D

 64 67  0  0  0  0  0  0  0  0999 V2000
   10.2844   43.7716   33.8050 C   0  0  0  0  0  0  0  0  0  0  0  0
   11.4060   43.5878   34.3634 O   0  0  0  0  0  0  0  0  0  0  0  0
    9.3647   42.7314   33.7020 O   0  0  0  0  0  0  0  0  0  0  0  0
    9.8850   41.2344   34.2847 P   0  0  0  0  0  5  0  0  0  0  0  0
   10.3714   41.4700   35.8726 O   0  0  0  0  0  1  0  0  0  0  0  0
    9.9632   45.1096   33.2341 C   0  0  2  0  0  0  0  0  0  0  0  0
   11.0663   46.0374   33.4909 N   0  0  0  0  0  0  0  0  0  0  0  0
    8.6346   45.6616   33.7974 C   0  0  0  0  0  0  0  0  0  0  0  0
    8.5707   45.7016   35.2987 C   0  0  0  0  0  0  0  0  0  0  0  0
    7.3443   45.4637   35.9275 O   0  0  0  0  0  0  0  0  0  0  0  0
    9.5915   46.0011   35.9774 O   0  0  0  0  0  0  0  0  0  0  0  0
    7.1982   45.3589   37.3417 C   0  0  0  0  0  0  0  0  0  0  0  0
    7.7401   44.0370   37.8334 C   0  0  0  0  0  0  0  0  0  0  0  0
    7.2850   42.7915   37.3179 C   0  0  0  0  0  0  0  0  0  0  0  0
    8.7504   44.0465   38.8124 C   0  0  0  0  0  0  0  0  0  0  0  0
    6.2580   42.7066   36.3126 N   0  0  0  0  0  4  0  0  0  0  0  0
    7.8684   41.6024   37.7899 C   0  0  0  0  0  0  0  0  0  0  0  0
    9.3081   42.8533   39.2728 C   0  0  0  0  0  0  0  0  0  0  0  0
    6.2564   41.6595   35.4200 O   0  0  0  0  0  1  0  0  0  0  0  0
    5.2742   43.4737   36.3364 O   0  0  0  0  0  0  0  0  0  0  0  0
    8.8685   41.6340   38.7624 C   0  0  0  0  0  0  0  0  0  0  0  0
    8.8088   40.1903   34.2108 O   0  0  0  0  0  0  0  0  0  0  0  0
   11.2373   40.7915   33.3688 O   0  0  0  0  0  0  0  0  0  0  0  0
   10.9176   40.6905   31.9956 C   0  0  0  0  0  0  0  0  0  0  0  0
   11.5170   39.3824   31.4412 C   0  0  0  0  0  0  0  0  0  0  0  0
   12.7490   39.0895   32.0758 O   0  0  0  0  0  0  0  0  0  0  0  0
   10.6034   38.1899   31.6660 C   0  0  0  0  0  0  0  0  0  0  0  0
   12.9399   37.6836   32.0277 C   0  0  0  0  0  0  0  0  0  0  0  0
    9.6375   38.0783   30.6474 O   0  0  0  0  0  0  0  0  0  0  0  0
   11.5803   37.0204   31.6937 C   0  0  0  0  0  0  0  0  0  0  0  0
   13.4901   37.2179   33.3238 N   0  0  0  0  0  0  0  0  0  0  0  0
   11.6118   36.3193   30.4681 O   0  0  0  0  0  0  0  0  0  0  0  0
   14.4758   36.3272   33.5731 C   0  0  0  0  0  0  0  0  0  0  0  0
   13.1175   37.6318   34.5689 C   0  0  0  0  0  0  0  0  0  0  0  0
   15.2063   35.6142   32.6742 N   0  0  0  0  0  0  0  0  0  0  0  0
   14.6729   36.2275   34.9185 C   0  0  0  0  0  0  0  0  0  0  0  0
   13.8221   37.0458   35.5784 N   0  0  0  0  0  0  0  0  0  0  0  0
   16.1636   34.7597   33.1549 C   0  0  0  0  0  0  0  0  0  0  0  0
   15.6513   35.3493   35.4133 C   0  0  0  0  0  0  0  0  0  0  0  0
   16.3790   34.6312   34.5043 N   0  0  0  0  0  0  0  0  0  0  0  0
   15.9001   35.1935   36.8091 N   0  0  0  0  0  0  0  0  0  0  0  0
    9.8445   44.9900   32.1335 H   0  0  0  0  0  0  0  0  0  0  0  0
   10.8167   46.9700   33.0881 H   0  0  0  0  0  0  0  0  0  0  0  0
   11.9026   45.7158   32.9497 H   0  0  0  0  0  0  0  0  0  0  0  0
    8.4585   46.6865   33.4068 H   0  0  0  0  0  0  0  0  0  0  0  0
    7.8003   45.0274   33.4256 H   0  0  0  0  0  0  0  0  0  0  0  0
    6.1239   45.4361   37.6064 H   0  0  0  0  0  0  0  0  0  0  0  0
    7.7011   46.2216   37.8317 H   0  0  0  0  0  0  0  0  0  0  0  0
    9.1157   44.9819   39.2182 H   0  0  0  0  0  0  0  0  0  0  0  0
    7.5407   40.6432   37.4096 H   0  0  0  0  0  0  0  0  0  0  0  0
   10.0863   42.8749   40.0248 H   0  0  0  0  0  0  0  0  0  0  0  0
    9.3054   40.7101   39.1187 H   0  0  0  0  0  0  0  0  0  0  0  0
   11.3977   41.5456   31.4735 H   0  0  0  0  0  0  0  0  0  0  0  0
    9.8295   40.7389   31.7562 H   0  0  0  0  0  0  0  0  0  0  0  0
   11.6986   39.5090   30.3489 H   0  0  0  0  0  0  0  0  0  0  0  0
   10.1128   38.2588   32.6665 H   0  0  0  0  0  0  0  0  0  0  0  0
   13.6799   37.4632   31.2266 H   0  0  0  0  0  0  0  0  0  0  0  0
    8.8946   38.6899   30.8897 H   0  0  0  0  0  0  0  0  0  0  0  0
   11.2831   36.3060   32.4930 H   0  0  0  0  0  0  0  0  0  0  0  0
   11.8859   36.9590   29.7593 H   0  0  0  0  0  0  0  0  0  0  0  0
   12.3359   38.3601   34.7443 H   0  0  0  0  0  0  0  0  0  0  0  0
   16.7571   34.1793   32.4621 H   0  0  0  0  0  0  0  0  0  0  0  0
   16.6361   34.5318   37.1415 H   0  0  0  0  0  0  0  0  0  0  0  0
   15.3528   35.7357   37.5140 H   0  0  0  0  0  0  0  0  0  0  0  0
  1  2  2  0
  1  3  1  0
  3  4  1  0
  4  5  1  0
  6  1  1  0
  7  6  1  0
  6  8  1  0
  8  9  1  0
  9 10  1  0
  9 11  2  0
 10 12  1  0
 12 13  1  0
 13 14  2  0
 15 13  1  0
 14 16  1  0
 14 17  1  0
 18 15  2  0
 16 19  1  0
 16 20  2  0
 17 21  2  0
 21 18  1  0
  4 22  2  0
  4 23  1  0
 24 23  1  0
 24 25  1  0
 25 26  1  0
 25 27  1  0
 26 28  1  0
 27 29  1  0
 27 30  1  0
 30 28  1  0
 28 31  1  0
 30 32  1  0
 33 31  1  0
 34 31  1  0
 35 33  2  0
 33 36  1  0
 37 34  2  0
 38 35  1  0
 36 39  2  0
 36 37  1  0
 40 38  2  0
 40 39  1  0
 39 41  1  0
  6 42  1  6
  7 43  1  0
  7 44  1  0
  8 45  1  0
  8 46  1  0
 12 47  1  0
 12 48  1  0
 15 49  1  0
 17 50  1  0
 18 51  1  0
 21 52  1  0
 24 53  1  0
 24 54  1  0
 25 55  1  0
 27 56  1  0
 28 57  1  0
 29 58  1  0
 30 59  1  0
 32 60  1  0
 34 61  1  0
 38 62  1  0
 41 63  1  0
 41 64  1  0
M  CHG  3   5  -1  16   1  19  -1
M  END
>  <EmbedRMS>  (166) 
0.08777400282138463

$$$$

     RDKit          3D

 64 67  0  0  0  0  0  0  0  0999 V2000
   10.2860   43.7720   33.8047 C   0  0  0  0  0  0  0  0  0  0  0  0
   11.4085   43.5885   34.3611 O   0  0  0  0  0  0  0  0  0  0  0  0
    9.3675   42.7309   33.6992 O   0  0  0  0  0  0  0  0  0  0  0  0
    9.8854   41.2341   34.2839 P   0  0  0  0  0  5  0  0  0  0  0  0
   10.3658   41.4701   35.8744 O   0  0  0  0  0  1  0  0  0  0  0  0
    9.9531   45.1147   33.2532 C   0  0  2  0  0  0  0  0  0  0  0  0
   11.0713   46.0332   33.4767 N   0  0  0  0  0  0  0  0  0  0  0  0
    8.6599   45.6653   33.8880 C   0  0  0  0  0  0  0  0  0  0  0  0
    8.7892   45.8568   35.3701 C   0  0  0  0  0  0  0  0  0  0  0  0
    9.4311   46.9962   35.8614 O   0  0  0  0  0  0  0  0  0  0  0  0
    8.3496   44.9751   36.1580 O   0  0  0  0  0  0  0  0  0  0  0  0
    9.6136   47.2379   37.2528 C   0  0  0  0  0  0  0  0  0  0  0  0
   10.3218   48.5547   37.4526 C   0  0  0  0  0  0  0  0  0  0  0  0
    9.8394   49.7663   36.8869 C   0  0  0  0  0  0  0  0  0  0  0  0
   11.5172   48.5723   38.1954 C   0  0  0  0  0  0  0  0  0  0  0  0
    8.6141   49.8190   36.1328 N   0  0  0  0  0  4  0  0  0  0  0  0
   10.5879   50.9460   37.0561 C   0  0  0  0  0  0  0  0  0  0  0  0
   12.2349   49.7570   38.3635 C   0  0  0  0  0  0  0  0  0  0  0  0
    7.5103   49.1032   36.5336 O   0  0  0  0  0  1  0  0  0  0  0  0
    8.4895   50.6382   35.1989 O   0  0  0  0  0  0  0  0  0  0  0  0
   11.7739   50.9403   37.7910 C   0  0  0  0  0  0  0  0  0  0  0  0
    8.8078   40.1913   34.2085 O   0  0  0  0  0  0  0  0  0  0  0  0
   11.2373   40.7896   33.3683 O   0  0  0  0  0  0  0  0  0  0  0  0
   10.9162   40.6889   31.9951 C   0  0  0  0  0  0  0  0  0  0  0  0
   11.5252   39.3872   31.4364 C   0  0  0  0  0  0  0  0  0  0  0  0
   12.7487   39.0879   32.0802 O   0  0  0  0  0  0  0  0  0  0  0  0
   10.6101   38.1909   31.6470 C   0  0  0  0  0  0  0  0  0  0  0  0
   12.9348   37.6807   32.0292 C   0  0  0  0  0  0  0  0  0  0  0  0
    9.6126   38.0874   30.6547 O   0  0  0  0  0  0  0  0  0  0  0  0
   11.5767   37.0133   31.7025 C   0  0  0  0  0  0  0  0  0  0  0  0
   13.4901   37.2165   33.3236 N   0  0  0  0  0  0  0  0  0  0  0  0
   11.6321   36.3231   30.4741 O   0  0  0  0  0  0  0  0  0  0  0  0
   14.4763   36.3266   33.5727 C   0  0  0  0  0  0  0  0  0  0  0  0
   13.1179   37.6307   34.5689 C   0  0  0  0  0  0  0  0  0  0  0  0
   15.2065   35.6135   32.6738 N   0  0  0  0  0  0  0  0  0  0  0  0
   14.6736   36.2272   34.9182 C   0  0  0  0  0  0  0  0  0  0  0  0
   13.8228   37.0453   35.5783 N   0  0  0  0  0  0  0  0  0  0  0  0
   16.1640   34.7592   33.1547 C   0  0  0  0  0  0  0  0  0  0  0  0
   15.6518   35.3491   35.4131 C   0  0  0  0  0  0  0  0  0  0  0  0
   16.3795   34.6309   34.5042 N   0  0  0  0  0  0  0  0  0  0  0  0
   15.9004   35.1933   36.8089 N   0  0  0  0  0  0  0  0  0  0  0  0
    9.7839   45.0052   32.1583 H   0  0  0  0  0  0  0  0  0  0  0  0
   11.8825   45.7133   32.8978 H   0  0  0  0  0  0  0  0  0  0  0  0
   10.8098   46.9722   33.0966 H   0  0  0  0  0  0  0  0  0  0  0  0
    8.4076   46.6425   33.4225 H   0  0  0  0  0  0  0  0  0  0  0  0
    7.8127   44.9776   33.6721 H   0  0  0  0  0  0  0  0  0  0  0  0
   10.2023   46.3997   37.6865 H   0  0  0  0  0  0  0  0  0  0  0  0
    8.6336   47.2574   37.7741 H   0  0  0  0  0  0  0  0  0  0  0  0
   11.9039   47.6635   38.6400 H   0  0  0  0  0  0  0  0  0  0  0  0
   10.2421   51.8794   36.6300 H   0  0  0  0  0  0  0  0  0  0  0  0
   13.1546   49.7557   38.9343 H   0  0  0  0  0  0  0  0  0  0  0  0
   12.3348   51.8571   37.9197 H   0  0  0  0  0  0  0  0  0  0  0  0
    9.8262   40.7204   31.7576 H   0  0  0  0  0  0  0  0  0  0  0  0
   11.3850   41.5506   31.4735 H   0  0  0  0  0  0  0  0  0  0  0  0
   11.7273   39.5286   30.3501 H   0  0  0  0  0  0  0  0  0  0  0  0
   10.1123   38.2732   32.6390 H   0  0  0  0  0  0  0  0  0  0  0  0
   13.6685   37.4590   31.2224 H   0  0  0  0  0  0  0  0  0  0  0  0
   10.0514   38.1110   29.7648 H   0  0  0  0  0  0  0  0  0  0  0  0
   11.2801   36.3128   32.5195 H   0  0  0  0  0  0  0  0  0  0  0  0
   10.8625   35.6960   30.4645 H   0  0  0  0  0  0  0  0  0  0  0  0
   12.3356   38.3580   34.7445 H   0  0  0  0  0  0  0  0  0  0  0  0
   16.7575   34.1787   32.4620 H   0  0  0  0  0  0  0  0  0  0  0  0
   15.3531   35.7355   37.5138 H   0  0  0  0  0  0  0  0  0  0  0  0
   16.6364   34.5315   37.1415 H   0  0  0  0  0  0  0  0  0  0  0  0
  1  2  2  0
  1  3  1  0
  3  4  1  0
  4  5  1  0
  6  1  1  0
  7  6  1  0
  6  8  1  0
  8  9  1  0
  9 10  1  0
  9 11  2  0
 10 12  1  0
 12 13  1  0
 13 14  2  0
 15 13  1  0
 14 16  1  0
 14 17  1  0
 18 15  2  0
 16 19  1  0
 16 20  2  0
 17 21  2  0
 21 18  1  0
  4 22  2  0
  4 23  1  0
 24 23  1  0
 24 25  1  0
 25 26  1  0
 25 27  1  0
 26 28  1  0
 27 29  1  0
 27 30  1  0
 30 28  1  0
 28 31  1  0
 30 32  1  0
 33 31  1  0
 34 31  1  0
 35 33  2  0
 33 36  1  0
 37 34  2  0
 38 35  1  0
 36 39  2  0
 36 37  1  0
 40 38  2  0
 40 39  1  0
 39 41  1  0
  6 42  1  6
  7 43  1  0
  7 44  1  0
  8 45  1  0
  8 46  1  0
 12 47  1  0
 12 48  1  0
 15 49  1  0
 17 50  1  0
 18 51  1  0
 21 52  1  0
 24 53  1  0
 24 54  1  0
 25 55  1  0
 27 56  1  0
 28 57  1  0
 29 58  1  0
 30 59  1  0
 32 60  1  0
 34 61  1  0
 38 62  1  0
 41 63  1  0
 41 64  1  0
M  CHG  3   5  -1  16   1  19  -1
M  END
>  <EmbedRMS>  (167) 
0.08814976537676178

$$$$

     RDKit          3D

 64 67  0  0  0  0  0  0  0  0999 V2000
   10.2853   43.7731   33.8076 C   0  0  0  0  0  0  0  0  0  0  0  0
   11.4099   43.5885   34.3590 O   0  0  0  0  0  0  0  0  0  0  0  0
    9.3671   42.7317   33.7025 O   0  0  0  0  0  0  0  0  0  0  0  0
    9.8854   41.2341   34.2847 P   0  0  0  0  0  5  0  0  0  0  0  0
   10.3648   41.4663   35.8755 O   0  0  0  0  0  1  0  0  0  0  0  0
    9.9560   45.1126   33.2468 C   0  0  2  0  0  0  0  0  0  0  0  0
   11.0692   46.0351   33.4786 N   0  0  0  0  0  0  0  0  0  0  0  0
    8.6511   45.6648   33.8560 C   0  0  0  0  0  0  0  0  0  0  0  0
    8.7852   45.9714   35.3182 C   0  0  0  0  0  0  0  0  0  0  0  0
    8.6867   44.9345   36.2530 O   0  0  0  0  0  0  0  0  0  0  0  0
    9.0148   47.1544   35.6887 O   0  0  0  0  0  0  0  0  0  0  0  0
    8.8037   45.1295   37.6621 C   0  0  0  0  0  0  0  0  0  0  0  0
   10.2111   45.5380   38.0366 C   0  0  0  0  0  0  0  0  0  0  0  0
   10.4998   46.6841   38.8248 C   0  0  0  0  0  0  0  0  0  0  0  0
   11.2651   44.6900   37.6530 C   0  0  0  0  0  0  0  0  0  0  0  0
    9.4747   47.5924   39.2541 N   0  0  0  0  0  4  0  0  0  0  0  0
   11.8275   46.9373   39.2091 C   0  0  0  0  0  0  0  0  0  0  0  0
   12.5799   44.9693   38.0271 C   0  0  0  0  0  0  0  0  0  0  0  0
    9.5145   48.1071   40.5293 O   0  0  0  0  0  1  0  0  0  0  0  0
    8.7148   48.1203   38.4169 O   0  0  0  0  0  0  0  0  0  0  0  0
   12.8604   46.0897   38.8066 C   0  0  0  0  0  0  0  0  0  0  0  0
    8.8080   40.1912   34.2072 O   0  0  0  0  0  0  0  0  0  0  0  0
   11.2382   40.7913   33.3697 O   0  0  0  0  0  0  0  0  0  0  0  0
   10.9187   40.6907   31.9962 C   0  0  0  0  0  0  0  0  0  0  0  0
   11.5174   39.3825   31.4413 C   0  0  0  0  0  0  0  0  0  0  0  0
   12.7494   39.0894   32.0757 O   0  0  0  0  0  0  0  0  0  0  0  0
   10.6036   38.1900   31.6660 C   0  0  0  0  0  0  0  0  0  0  0  0
   12.9401   37.6834   32.0276 C   0  0  0  0  0  0  0  0  0  0  0  0
    9.6376   38.0786   30.6474 O   0  0  0  0  0  0  0  0  0  0  0  0
   11.5803   37.0204   31.6937 C   0  0  0  0  0  0  0  0  0  0  0  0
   13.4902   37.2178   33.3237 N   0  0  0  0  0  0  0  0  0  0  0  0
   11.6118   36.3194   30.4680 O   0  0  0  0  0  0  0  0  0  0  0  0
   14.4758   36.3272   33.5731 C   0  0  0  0  0  0  0  0  0  0  0  0
   13.1176   37.6318   34.5688 C   0  0  0  0  0  0  0  0  0  0  0  0
   15.2064   35.6142   32.6742 N   0  0  0  0  0  0  0  0  0  0  0  0
   14.6729   36.2274   34.9184 C   0  0  0  0  0  0  0  0  0  0  0  0
   13.8221   37.0458   35.5784 N   0  0  0  0  0  0  0  0  0  0  0  0
   16.1637   34.7597   33.1549 C   0  0  0  0  0  0  0  0  0  0  0  0
   15.6514   35.3493   35.4133 C   0  0  0  0  0  0  0  0  0  0  0  0
   16.3791   34.6312   34.5044 N   0  0  0  0  0  0  0  0  0  0  0  0
   15.9001   35.1935   36.8091 N   0  0  0  0  0  0  0  0  0  0  0  0
    9.8029   44.9940   32.1504 H   0  0  0  0  0  0  0  0  0  0  0  0
   11.8876   45.7156   32.9096 H   0  0  0  0  0  0  0  0  0  0  0  0
   10.8082   46.9715   33.0919 H   0  0  0  0  0  0  0  0  0  0  0  0
    8.3588   46.5900   33.3126 H   0  0  0  0  0  0  0  0  0  0  0  0
    7.8254   44.9347   33.7119 H   0  0  0  0  0  0  0  0  0  0  0  0
    8.5779   44.1661   38.1659 H   0  0  0  0  0  0  0  0  0  0  0  0
    8.0307   45.8452   38.0015 H   0  0  0  0  0  0  0  0  0  0  0  0
   11.0645   43.8000   37.0719 H   0  0  0  0  0  0  0  0  0  0  0  0
   12.0645   47.8060   39.8107 H   0  0  0  0  0  0  0  0  0  0  0  0
   13.3810   44.3087   37.7214 H   0  0  0  0  0  0  0  0  0  0  0  0
   13.8801   46.3013   39.1016 H   0  0  0  0  0  0  0  0  0  0  0  0
   11.3995   41.5456   31.4744 H   0  0  0  0  0  0  0  0  0  0  0  0
    9.8308   40.7398   31.7563 H   0  0  0  0  0  0  0  0  0  0  0  0
   11.6989   39.5093   30.3491 H   0  0  0  0  0  0  0  0  0  0  0  0
   10.1130   38.2589   32.6664 H   0  0  0  0  0  0  0  0  0  0  0  0
   13.6800   37.4629   31.2266 H   0  0  0  0  0  0  0  0  0  0  0  0
    8.8953   38.6910   30.8891 H   0  0  0  0  0  0  0  0  0  0  0  0
   11.2830   36.3061   32.4929 H   0  0  0  0  0  0  0  0  0  0  0  0
   11.8859   36.9590   29.7593 H   0  0  0  0  0  0  0  0  0  0  0  0
   12.3361   38.3601   34.7442 H   0  0  0  0  0  0  0  0  0  0  0  0
   16.7572   34.1793   32.4621 H   0  0  0  0  0  0  0  0  0  0  0  0
   15.3528   35.7357   37.5140 H   0  0  0  0  0  0  0  0  0  0  0  0
   16.6362   34.5318   37.1416 H   0  0  0  0  0  0  0  0  0  0  0  0
  1  2  2  0
  1  3  1  0
  3  4  1  0
  4  5  1  0
  6  1  1  0
  7  6  1  0
  6  8  1  0
  8  9  1  0
  9 10  1  0
  9 11  2  0
 10 12  1  0
 12 13  1  0
 13 14  2  0
 15 13  1  0
 14 16  1  0
 14 17  1  0
 18 15  2  0
 16 19  1  0
 16 20  2  0
 17 21  2  0
 21 18  1  0
  4 22  2  0
  4 23  1  0
 24 23  1  0
 24 25  1  0
 25 26  1  0
 25 27  1  0
 26 28  1  0
 27 29  1  0
 27 30  1  0
 30 28  1  0
 28 31  1  0
 30 32  1  0
 33 31  1  0
 34 31  1  0
 35 33  2  0
 33 36  1  0
 37 34  2  0
 38 35  1  0
 36 39  2  0
 36 37  1  0
 40 38  2  0
 40 39  1  0
 39 41  1  0
  6 42  1  6
  7 43  1  0
  7 44  1  0
  8 45  1  0
  8 46  1  0
 12 47  1  0
 12 48  1  0
 15 49  1  0
 17 50  1  0
 18 51  1  0
 21 52  1  0
 24 53  1  0
 24 54  1  0
 25 55  1  0
 27 56  1  0
 28 57  1  0
 29 58  1  0
 30 59  1  0
 32 60  1  0
 34 61  1  0
 38 62  1  0
 41 63  1  0
 41 64  1  0
M  CHG  3   5  -1  16   1  19  -1
M  END
>  <EmbedRMS>  (168) 
0.08850005807984604

$$$$

     RDKit          3D

 64 67  0  0  0  0  0  0  0  0999 V2000
   10.2844   43.7743   33.8069 C   0  0  0  0  0  0  0  0  0  0  0  0
   11.4068   43.5904   34.3636 O   0  0  0  0  0  0  0  0  0  0  0  0
    9.3681   42.7310   33.6988 O   0  0  0  0  0  0  0  0  0  0  0  0
    9.8861   41.2342   34.2839 P   0  0  0  0  0  5  0  0  0  0  0  0
   10.3656   41.4698   35.8747 O   0  0  0  0  0  1  0  0  0  0  0  0
    9.9491   45.1165   33.2547 C   0  0  2  0  0  0  0  0  0  0  0  0
   11.0754   46.0275   33.4734 N   0  0  0  0  0  0  0  0  0  0  0  0
    8.6787   45.6544   33.9427 C   0  0  0  0  0  0  0  0  0  0  0  0
    8.1695   46.8970   33.2788 C   0  0  0  0  0  0  0  0  0  0  0  0
    8.4287   48.1428   33.8568 O   0  0  0  0  0  0  0  0  0  0  0  0
    7.5294   46.8108   32.1952 O   0  0  0  0  0  0  0  0  0  0  0  0
    7.9477   49.3635   33.3025 C   0  0  0  0  0  0  0  0  0  0  0  0
    8.4177   50.5224   34.1462 C   0  0  0  0  0  0  0  0  0  0  0  0
    9.7973   50.7779   34.3754 C   0  0  0  0  0  0  0  0  0  0  0  0
    7.4563   51.3394   34.7700 C   0  0  0  0  0  0  0  0  0  0  0  0
   10.8316   49.9888   33.7615 N   0  0  0  0  0  4  0  0  0  0  0  0
   10.1661   51.8222   35.2415 C   0  0  0  0  0  0  0  0  0  0  0  0
    7.8452   52.3819   35.6121 C   0  0  0  0  0  0  0  0  0  0  0  0
   12.0186   49.7787   34.4249 O   0  0  0  0  0  1  0  0  0  0  0  0
   10.7448   49.6467   32.5648 O   0  0  0  0  0  0  0  0  0  0  0  0
    9.1970   52.6199   35.8510 C   0  0  0  0  0  0  0  0  0  0  0  0
    8.8086   40.1912   34.2076 O   0  0  0  0  0  0  0  0  0  0  0  0
   11.2387   40.7906   33.3693 O   0  0  0  0  0  0  0  0  0  0  0  0
   10.9192   40.6905   31.9959 C   0  0  0  0  0  0  0  0  0  0  0  0
   11.5177   39.3823   31.4410 C   0  0  0  0  0  0  0  0  0  0  0  0
   12.7496   39.0891   32.0754 O   0  0  0  0  0  0  0  0  0  0  0  0
   10.6037   38.1899   31.6659 C   0  0  0  0  0  0  0  0  0  0  0  0
   12.9401   37.6832   32.0276 C   0  0  0  0  0  0  0  0  0  0  0  0
    9.6377   38.0785   30.6474 O   0  0  0  0  0  0  0  0  0  0  0  0
   11.5803   37.0203   31.6937 C   0  0  0  0  0  0  0  0  0  0  0  0
   13.4902   37.2177   33.3237 N   0  0  0  0  0  0  0  0  0  0  0  0
   11.6117   36.3192   30.4680 O   0  0  0  0  0  0  0  0  0  0  0  0
   14.4759   36.3271   33.5731 C   0  0  0  0  0  0  0  0  0  0  0  0
   13.1176   37.6317   34.5688 C   0  0  0  0  0  0  0  0  0  0  0  0
   15.2064   35.6141   32.6742 N   0  0  0  0  0  0  0  0  0  0  0  0
   14.6729   36.2274   34.9184 C   0  0  0  0  0  0  0  0  0  0  0  0
   13.8221   37.0457   35.5783 N   0  0  0  0  0  0  0  0  0  0  0  0
   16.1637   34.7596   33.1549 C   0  0  0  0  0  0  0  0  0  0  0  0
   15.6514   35.3493   35.4133 C   0  0  0  0  0  0  0  0  0  0  0  0
   16.3791   34.6312   34.5044 N   0  0  0  0  0  0  0  0  0  0  0  0
   15.9001   35.1935   36.8091 N   0  0  0  0  0  0  0  0  0  0  0  0
    9.7634   45.0048   32.1622 H   0  0  0  0  0  0  0  0  0  0  0  0
   10.8435   46.9542   33.0503 H   0  0  0  0  0  0  0  0  0  0  0  0
   11.8946   45.6782   32.9233 H   0  0  0  0  0  0  0  0  0  0  0  0
    7.8709   44.8908   33.9056 H   0  0  0  0  0  0  0  0  0  0  0  0
    8.8907   45.8673   35.0136 H   0  0  0  0  0  0  0  0  0  0  0  0
    8.3066   49.4839   32.2590 H   0  0  0  0  0  0  0  0  0  0  0  0
    6.8368   49.3256   33.2618 H   0  0  0  0  0  0  0  0  0  0  0  0
    6.3988   51.1644   34.6143 H   0  0  0  0  0  0  0  0  0  0  0  0
   11.2111   52.0307   35.4330 H   0  0  0  0  0  0  0  0  0  0  0  0
    7.0956   53.0017   36.0870 H   0  0  0  0  0  0  0  0  0  0  0  0
    9.4957   53.4261   36.5087 H   0  0  0  0  0  0  0  0  0  0  0  0
    9.8313   40.7397   31.7557 H   0  0  0  0  0  0  0  0  0  0  0  0
   11.4002   41.5453   31.4742 H   0  0  0  0  0  0  0  0  0  0  0  0
   11.6991   39.5089   30.3487 H   0  0  0  0  0  0  0  0  0  0  0  0
   10.1131   38.2590   32.6664 H   0  0  0  0  0  0  0  0  0  0  0  0
   13.6800   37.4625   31.2265 H   0  0  0  0  0  0  0  0  0  0  0  0
    8.8953   38.6909   30.8891 H   0  0  0  0  0  0  0  0  0  0  0  0
   11.2830   36.3060   32.4929 H   0  0  0  0  0  0  0  0  0  0  0  0
   11.8859   36.9588   29.7593 H   0  0  0  0  0  0  0  0  0  0  0  0
   12.3360   38.3600   34.7441 H   0  0  0  0  0  0  0  0  0  0  0  0
   16.7572   34.1793   32.4621 H   0  0  0  0  0  0  0  0  0  0  0  0
   16.6362   34.5318   37.1416 H   0  0  0  0  0  0  0  0  0  0  0  0
   15.3528   35.7357   37.5140 H   0  0  0  0  0  0  0  0  0  0  0  0
  1  2  2  0
  1  3  1  0
  3  4  1  0
  4  5  1  0
  6  1  1  0
  7  6  1  0
  6  8  1  0
  8  9  1  0
  9 10  1  0
  9 11  2  0
 10 12  1  0
 12 13  1  0
 13 14  2  0
 15 13  1  0
 14 16  1  0
 14 17  1  0
 18 15  2  0
 16 19  1  0
 16 20  2  0
 17 21  2  0
 21 18  1  0
  4 22  2  0
  4 23  1  0
 24 23  1  0
 24 25  1  0
 25 26  1  0
 25 27  1  0
 26 28  1  0
 27 29  1  0
 27 30  1  0
 30 28  1  0
 28 31  1  0
 30 32  1  0
 33 31  1  0
 34 31  1  0
 35 33  2  0
 33 36  1  0
 37 34  2  0
 38 35  1  0
 36 39  2  0
 36 37  1  0
 40 38  2  0
 40 39  1  0
 39 41  1  0
  6 42  1  6
  7 43  1  0
  7 44  1  0
  8 45  1  0
  8 46  1  0
 12 47  1  0
 12 48  1  0
 15 49  1  0
 17 50  1  0
 18 51  1  0
 21 52  1  0
 24 53  1  0
 24 54  1  0
 25 55  1  0
 27 56  1  0
 28 57  1  0
 29 58  1  0
 30 59  1  0
 32 60  1  0
 34 61  1  0
 38 62  1  0
 41 63  1  0
 41 64  1  0
M  CHG  3   5  -1  16   1  19  -1
M  END
>  <EmbedRMS>  (169) 
0.08839273926888243

$$$$

     RDKit          3D

 64 67  0  0  0  0  0  0  0  0999 V2000
   10.2860   43.7712   33.8102 C   0  0  0  0  0  0  0  0  0  0  0  0
   11.4099   43.5820   34.3617 O   0  0  0  0  0  0  0  0  0  0  0  0
    9.3669   42.7308   33.7020 O   0  0  0  0  0  0  0  0  0  0  0  0
    9.8847   41.2330   34.2845 P   0  0  0  0  0  5  0  0  0  0  0  0
   10.3649   41.4677   35.8752 O   0  0  0  0  0  1  0  0  0  0  0  0
    9.9604   45.1126   33.2471 C   0  0  2  0  0  0  0  0  0  0  0  0
   11.0659   46.0472   33.4746 N   0  0  0  0  0  0  0  0  0  0  0  0
    8.6650   45.6589   33.8713 C   0  0  0  0  0  0  0  0  0  0  0  0
    8.2470   46.9388   33.2156 C   0  0  0  0  0  0  0  0  0  0  0  0
    8.8004   48.1488   33.6524 O   0  0  0  0  0  0  0  0  0  0  0  0
    7.4361   46.9114   32.2498 O   0  0  0  0  0  0  0  0  0  0  0  0
    8.4533   49.4207   33.1016 C   0  0  0  0  0  0  0  0  0  0  0  0
    9.3552   49.8355   31.9533 C   0  0  0  0  0  0  0  0  0  0  0  0
    9.4256   51.1957   31.5402 C   0  0  0  0  0  0  0  0  0  0  0  0
   10.1419   48.8799   31.2759 C   0  0  0  0  0  0  0  0  0  0  0  0
    8.6165   52.2201   32.1472 N   0  0  0  0  0  4  0  0  0  0  0  0
   10.3155   51.5594   30.5141 C   0  0  0  0  0  0  0  0  0  0  0  0
   11.0048   49.2620   30.2483 C   0  0  0  0  0  0  0  0  0  0  0  0
    9.0839   53.5125   32.2167 O   0  0  0  0  0  1  0  0  0  0  0  0
    7.4264   51.9964   32.4495 O   0  0  0  0  0  0  0  0  0  0  0  0
   11.0975   50.5993   29.8735 C   0  0  0  0  0  0  0  0  0  0  0  0
    8.8074   40.1902   34.2075 O   0  0  0  0  0  0  0  0  0  0  0  0
   11.2377   40.7904   33.3696 O   0  0  0  0  0  0  0  0  0  0  0  0
   10.9187   40.6905   31.9961 C   0  0  0  0  0  0  0  0  0  0  0  0
   11.5175   39.3824   31.4411 C   0  0  0  0  0  0  0  0  0  0  0  0
   12.7494   39.0893   32.0756 O   0  0  0  0  0  0  0  0  0  0  0  0
   10.6036   38.1899   31.6659 C   0  0  0  0  0  0  0  0  0  0  0  0
   12.9401   37.6834   32.0276 C   0  0  0  0  0  0  0  0  0  0  0  0
    9.6376   38.0785   30.6474 O   0  0  0  0  0  0  0  0  0  0  0  0
   11.5804   37.0204   31.6936 C   0  0  0  0  0  0  0  0  0  0  0  0
   13.4902   37.2177   33.3237 N   0  0  0  0  0  0  0  0  0  0  0  0
   11.6118   36.3193   30.4680 O   0  0  0  0  0  0  0  0  0  0  0  0
   14.4759   36.3271   33.5731 C   0  0  0  0  0  0  0  0  0  0  0  0
   13.1176   37.6317   34.5688 C   0  0  0  0  0  0  0  0  0  0  0  0
   15.2064   35.6141   32.6742 N   0  0  0  0  0  0  0  0  0  0  0  0
   14.6729   36.2274   34.9184 C   0  0  0  0  0  0  0  0  0  0  0  0
   13.8221   37.0457   35.5783 N   0  0  0  0  0  0  0  0  0  0  0  0
   16.1637   34.7597   33.1549 C   0  0  0  0  0  0  0  0  0  0  0  0
   15.6514   35.3493   35.4133 C   0  0  0  0  0  0  0  0  0  0  0  0
   16.3791   34.6312   34.5044 N   0  0  0  0  0  0  0  0  0  0  0  0
   15.9001   35.1935   36.8091 N   0  0  0  0  0  0  0  0  0  0  0  0
    9.8095   44.9946   32.1510 H   0  0  0  0  0  0  0  0  0  0  0  0
   11.9209   45.7033   32.9787 H   0  0  0  0  0  0  0  0  0  0  0  0
   11.2784   46.1163   34.4974 H   0  0  0  0  0  0  0  0  0  0  0  0
    7.8452   44.9156   33.7576 H   0  0  0  0  0  0  0  0  0  0  0  0
    8.8106   45.8361   34.9593 H   0  0  0  0  0  0  0  0  0  0  0  0
    7.3920   49.4227   32.7716 H   0  0  0  0  0  0  0  0  0  0  0  0
    8.5552   50.1653   33.9189 H   0  0  0  0  0  0  0  0  0  0  0  0
   10.1070   47.8337   31.5381 H   0  0  0  0  0  0  0  0  0  0  0  0
   10.3887   52.5906   30.1928 H   0  0  0  0  0  0  0  0  0  0  0  0
   11.6074   48.5175   29.7440 H   0  0  0  0  0  0  0  0  0  0  0  0
   11.7707   50.8924   29.0782 H   0  0  0  0  0  0  0  0  0  0  0  0
    9.8309   40.7398   31.7558 H   0  0  0  0  0  0  0  0  0  0  0  0
   11.3998   41.5455   31.4747 H   0  0  0  0  0  0  0  0  0  0  0  0
   11.6989   39.5091   30.3489 H   0  0  0  0  0  0  0  0  0  0  0  0
   10.1130   38.2588   32.6663 H   0  0  0  0  0  0  0  0  0  0  0  0
   13.6800   37.4628   31.2265 H   0  0  0  0  0  0  0  0  0  0  0  0
    8.8953   38.6908   30.8891 H   0  0  0  0  0  0  0  0  0  0  0  0
   11.2830   36.3060   32.4929 H   0  0  0  0  0  0  0  0  0  0  0  0
   11.8859   36.9589   29.7593 H   0  0  0  0  0  0  0  0  0  0  0  0
   12.3360   38.3600   34.7441 H   0  0  0  0  0  0  0  0  0  0  0  0
   16.7572   34.1793   32.4621 H   0  0  0  0  0  0  0  0  0  0  0  0
   15.3528   35.7356   37.5140 H   0  0  0  0  0  0  0  0  0  0  0  0
   16.6362   34.5318   37.1416 H   0  0  0  0  0  0  0  0  0  0  0  0
  1  2  2  0
  1  3  1  0
  3  4  1  0
  4  5  1  0
  6  1  1  0
  7  6  1  0
  6  8  1  0
  8  9  1  0
  9 10  1  0
  9 11  2  0
 10 12  1  0
 12 13  1  0
 13 14  2  0
 15 13  1  0
 14 16  1  0
 14 17  1  0
 18 15  2  0
 16 19  1  0
 16 20  2  0
 17 21  2  0
 21 18  1  0
  4 22  2  0
  4 23  1  0
 24 23  1  0
 24 25  1  0
 25 26  1  0
 25 27  1  0
 26 28  1  0
 27 29  1  0
 27 30  1  0
 30 28  1  0
 28 31  1  0
 30 32  1  0
 33 31  1  0
 34 31  1  0
 35 33  2  0
 33 36  1  0
 37 34  2  0
 38 35  1  0
 36 39  2  0
 36 37  1  0
 40 38  2  0
 40 39  1  0
 39 41  1  0
  6 42  1  6
  7 43  1  0
  7 44  1  0
  8 45  1  0
  8 46  1  0
 12 47  1  0
 12 48  1  0
 15 49  1  0
 17 50  1  0
 18 51  1  0
 21 52  1  0
 24 53  1  0
 24 54  1  0
 25 55  1  0
 27 56  1  0
 28 57  1  0
 29 58  1  0
 30 59  1  0
 32 60  1  0
 34 61  1  0
 38 62  1  0
 41 63  1  0
 41 64  1  0
M  CHG  3   5  -1  16   1  19  -1
M  END
>  <EmbedRMS>  (170) 
0.0888197843279394

$$$$

     RDKit          3D

 64 67  0  0  0  0  0  0  0  0999 V2000
   10.2817   43.7753   33.8072 C   0  0  0  0  0  0  0  0  0  0  0  0
   11.4044   43.5919   34.3638 O   0  0  0  0  0  0  0  0  0  0  0  0
    9.3727   42.7275   33.6913 O   0  0  0  0  0  0  0  0  0  0  0  0
    9.8869   41.2334   34.2837 P   0  0  0  0  0  5  0  0  0  0  0  0
   10.3644   41.4721   35.8745 O   0  0  0  0  0  1  0  0  0  0  0  0
    9.9418   45.1255   33.2676 C   0  0  2  0  0  0  0  0  0  0  0  0
   11.0811   46.0233   33.4662 N   0  0  0  0  0  0  0  0  0  0  0  0
    8.7007   45.7057   33.9816 C   0  0  0  0  0  0  0  0  0  0  0  0
    7.4312   45.0482   33.5311 C   0  0  0  0  0  0  0  0  0  0  0  0
    6.9709   43.9121   34.2009 O   0  0  0  0  0  0  0  0  0  0  0  0
    6.8100   45.5023   32.5316 O   0  0  0  0  0  0  0  0  0  0  0  0
    5.7886   43.2131   33.8256 C   0  0  0  0  0  0  0  0  0  0  0  0
    5.7108   41.9096   34.5819 C   0  0  0  0  0  0  0  0  0  0  0  0
    5.8191   41.8477   35.9987 C   0  0  0  0  0  0  0  0  0  0  0  0
    5.5729   40.7139   33.8520 C   0  0  0  0  0  0  0  0  0  0  0  0
    5.9350   43.0315   36.8093 N   0  0  0  0  0  4  0  0  0  0  0  0
    5.8297   40.5909   36.6296 C   0  0  0  0  0  0  0  0  0  0  0  0
    5.5665   39.4789   34.5012 C   0  0  0  0  0  0  0  0  0  0  0  0
    6.6176   42.9824   38.0031 O   0  0  0  0  0  1  0  0  0  0  0  0
    5.2896   44.0623   36.5300 O   0  0  0  0  0  0  0  0  0  0  0  0
    5.7019   39.4172   35.8862 C   0  0  0  0  0  0  0  0  0  0  0  0
    8.8099   40.1904   34.2083 O   0  0  0  0  0  0  0  0  0  0  0  0
   11.2383   40.7882   33.3695 O   0  0  0  0  0  0  0  0  0  0  0  0
   10.9164   40.6892   31.9964 C   0  0  0  0  0  0  0  0  0  0  0  0
   11.5271   39.3896   31.4372 C   0  0  0  0  0  0  0  0  0  0  0  0
   12.7510   39.0912   32.0833 O   0  0  0  0  0  0  0  0  0  0  0  0
   10.6121   38.1916   31.6453 C   0  0  0  0  0  0  0  0  0  0  0  0
   12.9428   37.6849   32.0294 C   0  0  0  0  0  0  0  0  0  0  0  0
    9.6067   38.0859   30.6605 O   0  0  0  0  0  0  0  0  0  0  0  0
   11.5842   37.0185   31.6880 C   0  0  0  0  0  0  0  0  0  0  0  0
   13.4898   37.2162   33.3249 N   0  0  0  0  0  0  0  0  0  0  0  0
   11.6198   36.3062   30.4693 O   0  0  0  0  0  0  0  0  0  0  0  0
   14.4758   36.3263   33.5739 C   0  0  0  0  0  0  0  0  0  0  0  0
   13.1174   37.6307   34.5698 C   0  0  0  0  0  0  0  0  0  0  0  0
   15.2065   35.6138   32.6746 N   0  0  0  0  0  0  0  0  0  0  0  0
   14.6731   36.2268   34.9191 C   0  0  0  0  0  0  0  0  0  0  0  0
   13.8223   37.0450   35.5792 N   0  0  0  0  0  0  0  0  0  0  0  0
   16.1640   34.7596   33.1551 C   0  0  0  0  0  0  0  0  0  0  0  0
   15.6517   35.3489   35.4136 C   0  0  0  0  0  0  0  0  0  0  0  0
   16.3795   34.6310   34.5046 N   0  0  0  0  0  0  0  0  0  0  0  0
   15.9005   35.1931   36.8094 N   0  0  0  0  0  0  0  0  0  0  0  0
    9.7367   45.0348   32.1763 H   0  0  0  0  0  0  0  0  0  0  0  0
   10.8417   46.9592   33.0648 H   0  0  0  0  0  0  0  0  0  0  0  0
   11.8812   45.6752   32.8877 H   0  0  0  0  0  0  0  0  0  0  0  0
    8.6172   46.7939   33.7686 H   0  0  0  0  0  0  0  0  0  0  0  0
    8.8050   45.5962   35.0835 H   0  0  0  0  0  0  0  0  0  0  0  0
    4.8933   43.8326   34.0428 H   0  0  0  0  0  0  0  0  0  0  0  0
    5.8099   43.0281   32.7288 H   0  0  0  0  0  0  0  0  0  0  0  0
    5.4856   40.7330   32.7727 H   0  0  0  0  0  0  0  0  0  0  0  0
    5.9195   40.5195   37.7061 H   0  0  0  0  0  0  0  0  0  0  0  0
    5.4668   38.5668   33.9270 H   0  0  0  0  0  0  0  0  0  0  0  0
    5.7036   38.4574   36.3864 H   0  0  0  0  0  0  0  0  0  0  0  0
   11.3838   41.5523   31.4757 H   0  0  0  0  0  0  0  0  0  0  0  0
    9.8262   40.7189   31.7590 H   0  0  0  0  0  0  0  0  0  0  0  0
   11.7316   39.5337   30.3517 H   0  0  0  0  0  0  0  0  0  0  0  0
   10.1214   38.2684   32.6414 H   0  0  0  0  0  0  0  0  0  0  0  0
   13.6880   37.4700   31.2318 H   0  0  0  0  0  0  0  0  0  0  0  0
   10.0252   38.1753   29.7658 H   0  0  0  0  0  0  0  0  0  0  0  0
   11.2793   36.3123   32.4916 H   0  0  0  0  0  0  0  0  0  0  0  0
   11.9866   36.9099   29.7714 H   0  0  0  0  0  0  0  0  0  0  0  0
   12.3363   38.3594   34.7452 H   0  0  0  0  0  0  0  0  0  0  0  0
   16.7577   34.1794   32.4623 H   0  0  0  0  0  0  0  0  0  0  0  0
   15.3531   35.7351   37.5144 H   0  0  0  0  0  0  0  0  0  0  0  0
   16.6368   34.5316   37.1418 H   0  0  0  0  0  0  0  0  0  0  0  0
  1  2  2  0
  1  3  1  0
  3  4  1  0
  4  5  1  0
  6  1  1  0
  7  6  1  0
  6  8  1  0
  8  9  1  0
  9 10  1  0
  9 11  2  0
 10 12  1  0
 12 13  1  0
 13 14  2  0
 15 13  1  0
 14 16  1  0
 14 17  1  0
 18 15  2  0
 16 19  1  0
 16 20  2  0
 17 21  2  0
 21 18  1  0
  4 22  2  0
  4 23  1  0
 24 23  1  0
 24 25  1  0
 25 26  1  0
 25 27  1  0
 26 28  1  0
 27 29  1  0
 27 30  1  0
 30 28  1  0
 28 31  1  0
 30 32  1  0
 33 31  1  0
 34 31  1  0
 35 33  2  0
 33 36  1  0
 37 34  2  0
 38 35  1  0
 36 39  2  0
 36 37  1  0
 40 38  2  0
 40 39  1  0
 39 41  1  0
  6 42  1  6
  7 43  1  0
  7 44  1  0
  8 45  1  0
  8 46  1  0
 12 47  1  0
 12 48  1  0
 15 49  1  0
 17 50  1  0
 18 51  1  0
 21 52  1  0
 24 53  1  0
 24 54  1  0
 25 55  1  0
 27 56  1  0
 28 57  1  0
 29 58  1  0
 30 59  1  0
 32 60  1  0
 34 61  1  0
 38 62  1  0
 41 63  1  0
 41 64  1  0
M  CHG  3   5  -1  16   1  19  -1
M  END
>  <EmbedRMS>  (171) 
0.08765469597368107

$$$$

     RDKit          3D

 64 67  0  0  0  0  0  0  0  0999 V2000
   10.2847   43.7727   33.8073 C   0  0  0  0  0  0  0  0  0  0  0  0
   11.4102   43.5877   34.3569 O   0  0  0  0  0  0  0  0  0  0  0  0
    9.3663   42.7314   33.7017 O   0  0  0  0  0  0  0  0  0  0  0  0
    9.8852   41.2342   34.2845 P   0  0  0  0  0  5  0  0  0  0  0  0
   10.3658   41.4695   35.8749 O   0  0  0  0  0  1  0  0  0  0  0  0
    9.9586   45.1104   33.2432 C   0  0  2  0  0  0  0  0  0  0  0  0
   11.0674   46.0361   33.4838 N   0  0  0  0  0  0  0  0  0  0  0  0
    8.6198   45.6596   33.7856 C   0  0  0  0  0  0  0  0  0  0  0  0
    8.5913   45.7868   35.2810 C   0  0  0  0  0  0  0  0  0  0  0  0
    8.9443   47.0002   35.8777 O   0  0  0  0  0  0  0  0  0  0  0  0
    8.2601   44.7962   35.9879 O   0  0  0  0  0  0  0  0  0  0  0  0
    8.8610   47.2181   37.2824 C   0  0  0  0  0  0  0  0  0  0  0  0
    9.2811   48.6304   37.5960 C   0  0  0  0  0  0  0  0  0  0  0  0
   10.6287   48.9826   37.8795 C   0  0  0  0  0  0  0  0  0  0  0  0
    8.2946   49.6327   37.5964 C   0  0  0  0  0  0  0  0  0  0  0  0
   11.6958   48.0180   37.8430 N   0  0  0  0  0  4  0  0  0  0  0  0
   10.9309   50.3153   38.2121 C   0  0  0  0  0  0  0  0  0  0  0  0
    8.6197   50.9523   37.9117 C   0  0  0  0  0  0  0  0  0  0  0  0
   12.7972   48.1817   38.6525 O   0  0  0  0  0  1  0  0  0  0  0  0
   11.7282   47.1392   36.9581 O   0  0  0  0  0  0  0  0  0  0  0  0
    9.9338   51.2915   38.2265 C   0  0  0  0  0  0  0  0  0  0  0  0
    8.8079   40.1911   34.2087 O   0  0  0  0  0  0  0  0  0  0  0  0
   11.2370   40.7905   33.3682 O   0  0  0  0  0  0  0  0  0  0  0  0
   10.9151   40.6883   31.9952 C   0  0  0  0  0  0  0  0  0  0  0  0
   11.5260   39.3872   31.4366 C   0  0  0  0  0  0  0  0  0  0  0  0
   12.7490   39.0894   32.0821 O   0  0  0  0  0  0  0  0  0  0  0  0
   10.6122   38.1894   31.6462 C   0  0  0  0  0  0  0  0  0  0  0  0
   12.9373   37.6828   32.0302 C   0  0  0  0  0  0  0  0  0  0  0  0
    9.6150   38.0838   30.6538 O   0  0  0  0  0  0  0  0  0  0  0  0
   11.5792   37.0137   31.7015 C   0  0  0  0  0  0  0  0  0  0  0  0
   13.4906   37.2170   33.3243 N   0  0  0  0  0  0  0  0  0  0  0  0
   11.6216   36.3252   30.4726 O   0  0  0  0  0  0  0  0  0  0  0  0
   14.4763   36.3267   33.5731 C   0  0  0  0  0  0  0  0  0  0  0  0
   13.1182   37.6309   34.5694 C   0  0  0  0  0  0  0  0  0  0  0  0
   15.2066   35.6140   32.6739 N   0  0  0  0  0  0  0  0  0  0  0  0
   14.6735   36.2269   34.9185 C   0  0  0  0  0  0  0  0  0  0  0  0
   13.8227   37.0449   35.5788 N   0  0  0  0  0  0  0  0  0  0  0  0
   16.1639   34.7595   33.1545 C   0  0  0  0  0  0  0  0  0  0  0  0
   15.6518   35.3488   35.4131 C   0  0  0  0  0  0  0  0  0  0  0  0
   16.3794   34.6308   34.5040 N   0  0  0  0  0  0  0  0  0  0  0  0
   15.9005   35.1929   36.8089 N   0  0  0  0  0  0  0  0  0  0  0  0
    9.8505   44.9820   32.1438 H   0  0  0  0  0  0  0  0  0  0  0  0
   10.8574   46.9424   33.0056 H   0  0  0  0  0  0  0  0  0  0  0  0
   11.1505   46.2364   34.5061 H   0  0  0  0  0  0  0  0  0  0  0  0
    7.7905   44.9926   33.4632 H   0  0  0  0  0  0  0  0  0  0  0  0
    8.4223   46.6560   33.3347 H   0  0  0  0  0  0  0  0  0  0  0  0
    9.4915   46.4843   37.8275 H   0  0  0  0  0  0  0  0  0  0  0  0
    7.8141   47.0502   37.6185 H   0  0  0  0  0  0  0  0  0  0  0  0
    7.2655   49.3895   37.3617 H   0  0  0  0  0  0  0  0  0  0  0  0
   11.9486   50.6057   38.4401 H   0  0  0  0  0  0  0  0  0  0  0  0
    7.8495   51.7127   37.9159 H   0  0  0  0  0  0  0  0  0  0  0  0
   10.1830   52.3152   38.4741 H   0  0  0  0  0  0  0  0  0  0  0  0
   11.3818   41.5507   31.4728 H   0  0  0  0  0  0  0  0  0  0  0  0
    9.8249   40.7175   31.7587 H   0  0  0  0  0  0  0  0  0  0  0  0
   11.7291   39.5286   30.3505 H   0  0  0  0  0  0  0  0  0  0  0  0
   10.1139   38.2719   32.6380 H   0  0  0  0  0  0  0  0  0  0  0  0
   13.6724   37.4638   31.2240 H   0  0  0  0  0  0  0  0  0  0  0  0
   10.0537   38.1087   29.7639 H   0  0  0  0  0  0  0  0  0  0  0  0
   11.2643   36.3136   32.5108 H   0  0  0  0  0  0  0  0  0  0  0  0
   12.1552   35.5034   30.6318 H   0  0  0  0  0  0  0  0  0  0  0  0
   12.3364   38.3590   34.7450 H   0  0  0  0  0  0  0  0  0  0  0  0
   16.7573   34.1790   32.4616 H   0  0  0  0  0  0  0  0  0  0  0  0
   15.3534   35.7352   37.5139 H   0  0  0  0  0  0  0  0  0  0  0  0
   16.6367   34.5313   37.1413 H   0  0  0  0  0  0  0  0  0  0  0  0
  1  2  2  0
  1  3  1  0
  3  4  1  0
  4  5  1  0
  6  1  1  0
  7  6  1  0
  6  8  1  0
  8  9  1  0
  9 10  1  0
  9 11  2  0
 10 12  1  0
 12 13  1  0
 13 14  2  0
 15 13  1  0
 14 16  1  0
 14 17  1  0
 18 15  2  0
 16 19  1  0
 16 20  2  0
 17 21  2  0
 21 18  1  0
  4 22  2  0
  4 23  1  0
 24 23  1  0
 24 25  1  0
 25 26  1  0
 25 27  1  0
 26 28  1  0
 27 29  1  0
 27 30  1  0
 30 28  1  0
 28 31  1  0
 30 32  1  0
 33 31  1  0
 34 31  1  0
 35 33  2  0
 33 36  1  0
 37 34  2  0
 38 35  1  0
 36 39  2  0
 36 37  1  0
 40 38  2  0
 40 39  1  0
 39 41  1  0
  6 42  1  6
  7 43  1  0
  7 44  1  0
  8 45  1  0
  8 46  1  0
 12 47  1  0
 12 48  1  0
 15 49  1  0
 17 50  1  0
 18 51  1  0
 21 52  1  0
 24 53  1  0
 24 54  1  0
 25 55  1  0
 27 56  1  0
 28 57  1  0
 29 58  1  0
 30 59  1  0
 32 60  1  0
 34 61  1  0
 38 62  1  0
 41 63  1  0
 41 64  1  0
M  CHG  3   5  -1  16   1  19  -1
M  END
>  <EmbedRMS>  (172) 
0.08780586382787753

$$$$

     RDKit          3D

 64 67  0  0  0  0  0  0  0  0999 V2000
   10.2850   43.7725   33.8068 C   0  0  0  0  0  0  0  0  0  0  0  0
   11.4105   43.5875   34.3565 O   0  0  0  0  0  0  0  0  0  0  0  0
    9.3667   42.7312   33.7011 O   0  0  0  0  0  0  0  0  0  0  0  0
    9.8856   41.2340   34.2840 P   0  0  0  0  0  5  0  0  0  0  0  0
   10.3657   41.4695   35.8746 O   0  0  0  0  0  1  0  0  0  0  0  0
    9.9581   45.1108   33.2444 C   0  0  2  0  0  0  0  0  0  0  0  0
   11.0675   46.0361   33.4842 N   0  0  0  0  0  0  0  0  0  0  0  0
    8.6205   45.6593   33.7910 C   0  0  0  0  0  0  0  0  0  0  0  0
    8.5958   45.7800   35.2870 C   0  0  0  0  0  0  0  0  0  0  0  0
    8.9713   46.9846   35.8884 O   0  0  0  0  0  0  0  0  0  0  0  0
    8.2526   44.7904   35.9900 O   0  0  0  0  0  0  0  0  0  0  0  0
    8.9221   47.1880   37.2973 C   0  0  0  0  0  0  0  0  0  0  0  0
    9.4193   48.5737   37.6265 C   0  0  0  0  0  0  0  0  0  0  0  0
   10.7320   49.0045   37.2909 C   0  0  0  0  0  0  0  0  0  0  0  0
    8.5323   49.4844   38.2306 C   0  0  0  0  0  0  0  0  0  0  0  0
   11.6916   48.1247   36.6790 N   0  0  0  0  0  4  0  0  0  0  0  0
   11.1024   50.3365   37.5474 C   0  0  0  0  0  0  0  0  0  0  0  0
    8.9270   50.7971   38.4920 C   0  0  0  0  0  0  0  0  0  0  0  0
   12.6252   48.6309   35.8041 O   0  0  0  0  0  1  0  0  0  0  0  0
   11.8111   46.9446   37.0663 O   0  0  0  0  0  0  0  0  0  0  0  0
   10.2078   51.2234   38.1473 C   0  0  0  0  0  0  0  0  0  0  0  0
    8.8082   40.1910   34.2080 O   0  0  0  0  0  0  0  0  0  0  0  0
   11.2384   40.7904   33.3687 O   0  0  0  0  0  0  0  0  0  0  0  0
   10.9193   40.6895   31.9949 C   0  0  0  0  0  0  0  0  0  0  0  0
   11.5171   39.3801   31.4398 C   0  0  0  0  0  0  0  0  0  0  0  0
   12.7478   39.0862   32.0734 O   0  0  0  0  0  0  0  0  0  0  0  0
   10.6031   38.1891   31.6667 C   0  0  0  0  0  0  0  0  0  0  0  0
   12.9335   37.6797   32.0280 C   0  0  0  0  0  0  0  0  0  0  0  0
    9.6397   38.0777   30.6456 O   0  0  0  0  0  0  0  0  0  0  0  0
   11.5739   37.0154   31.7057 C   0  0  0  0  0  0  0  0  0  0  0  0
   13.4903   37.2178   33.3231 N   0  0  0  0  0  0  0  0  0  0  0  0
   11.6211   36.3376   30.4695 O   0  0  0  0  0  0  0  0  0  0  0  0
   14.4761   36.3273   33.5725 C   0  0  0  0  0  0  0  0  0  0  0  0
   13.1179   37.6317   34.5684 C   0  0  0  0  0  0  0  0  0  0  0  0
   15.2063   35.6139   32.6737 N   0  0  0  0  0  0  0  0  0  0  0  0
   14.6733   36.2277   34.9180 C   0  0  0  0  0  0  0  0  0  0  0  0
   13.8225   37.0459   35.5779 N   0  0  0  0  0  0  0  0  0  0  0  0
   16.1636   34.7594   33.1546 C   0  0  0  0  0  0  0  0  0  0  0  0
   15.6515   35.3494   35.4129 C   0  0  0  0  0  0  0  0  0  0  0  0
   16.3791   34.6311   34.5041 N   0  0  0  0  0  0  0  0  0  0  0  0
   15.9001   35.1935   36.8088 N   0  0  0  0  0  0  0  0  0  0  0  0
    9.8479   44.9843   32.1450 H   0  0  0  0  0  0  0  0  0  0  0  0
   11.1569   46.2293   34.5073 H   0  0  0  0  0  0  0  0  0  0  0  0
   10.8541   46.9454   33.0135 H   0  0  0  0  0  0  0  0  0  0  0  0
    7.7901   44.9943   33.4672 H   0  0  0  0  0  0  0  0  0  0  0  0
    8.4232   46.6579   33.3450 H   0  0  0  0  0  0  0  0  0  0  0  0
    9.5379   46.4279   37.8216 H   0  0  0  0  0  0  0  0  0  0  0  0
    7.8742   47.0488   37.6431 H   0  0  0  0  0  0  0  0  0  0  0  0
    7.5255   49.1831   38.4922 H   0  0  0  0  0  0  0  0  0  0  0  0
   12.0958   50.6860   37.2961 H   0  0  0  0  0  0  0  0  0  0  0  0
    8.2346   51.4877   38.9558 H   0  0  0  0  0  0  0  0  0  0  0  0
   10.5095   52.2436   38.3467 H   0  0  0  0  0  0  0  0  0  0  0  0
   11.4009   41.5437   31.4729 H   0  0  0  0  0  0  0  0  0  0  0  0
    9.8314   40.7396   31.7550 H   0  0  0  0  0  0  0  0  0  0  0  0
   11.6982   39.5043   30.3471 H   0  0  0  0  0  0  0  0  0  0  0  0
   10.1089   38.2631   32.6649 H   0  0  0  0  0  0  0  0  0  0  0  0
   13.6656   37.4541   31.2207 H   0  0  0  0  0  0  0  0  0  0  0  0
    8.8965   38.6899   30.8852 H   0  0  0  0  0  0  0  0  0  0  0  0
   11.2846   36.3060   32.5175 H   0  0  0  0  0  0  0  0  0  0  0  0
   10.8523   35.7095   30.4590 H   0  0  0  0  0  0  0  0  0  0  0  0
   12.3353   38.3588   34.7440 H   0  0  0  0  0  0  0  0  0  0  0  0
   16.7570   34.1788   32.4619 H   0  0  0  0  0  0  0  0  0  0  0  0
   15.3529   35.7359   37.5136 H   0  0  0  0  0  0  0  0  0  0  0  0
   16.6360   34.5317   37.1413 H   0  0  0  0  0  0  0  0  0  0  0  0
  1  2  2  0
  1  3  1  0
  3  4  1  0
  4  5  1  0
  6  1  1  0
  7  6  1  0
  6  8  1  0
  8  9  1  0
  9 10  1  0
  9 11  2  0
 10 12  1  0
 12 13  1  0
 13 14  2  0
 15 13  1  0
 14 16  1  0
 14 17  1  0
 18 15  2  0
 16 19  1  0
 16 20  2  0
 17 21  2  0
 21 18  1  0
  4 22  2  0
  4 23  1  0
 24 23  1  0
 24 25  1  0
 25 26  1  0
 25 27  1  0
 26 28  1  0
 27 29  1  0
 27 30  1  0
 30 28  1  0
 28 31  1  0
 30 32  1  0
 33 31  1  0
 34 31  1  0
 35 33  2  0
 33 36  1  0
 37 34  2  0
 38 35  1  0
 36 39  2  0
 36 37  1  0
 40 38  2  0
 40 39  1  0
 39 41  1  0
  6 42  1  6
  7 43  1  0
  7 44  1  0
  8 45  1  0
  8 46  1  0
 12 47  1  0
 12 48  1  0
 15 49  1  0
 17 50  1  0
 18 51  1  0
 21 52  1  0
 24 53  1  0
 24 54  1  0
 25 55  1  0
 27 56  1  0
 28 57  1  0
 29 58  1  0
 30 59  1  0
 32 60  1  0
 34 61  1  0
 38 62  1  0
 41 63  1  0
 41 64  1  0
M  CHG  3   5  -1  16   1  19  -1
M  END
>  <EmbedRMS>  (173) 
0.08931068513251868

$$$$

     RDKit          3D

 64 67  0  0  0  0  0  0  0  0999 V2000
   10.2828   43.7756   33.8080 C   0  0  0  0  0  0  0  0  0  0  0  0
   11.4085   43.5914   34.3579 O   0  0  0  0  0  0  0  0  0  0  0  0
    9.3664   42.7321   33.7019 O   0  0  0  0  0  0  0  0  0  0  0  0
    9.8859   41.2348   34.2841 P   0  0  0  0  0  5  0  0  0  0  0  0
   10.3673   41.4694   35.8744 O   0  0  0  0  0  1  0  0  0  0  0  0
    9.9539   45.1114   33.2428 C   0  0  2  0  0  0  0  0  0  0  0  0
   11.0721   46.0272   33.4848 N   0  0  0  0  0  0  0  0  0  0  0  0
    8.6399   45.6448   33.8514 C   0  0  0  0  0  0  0  0  0  0  0  0
    8.2194   46.9276   33.2044 C   0  0  0  0  0  0  0  0  0  0  0  0
    7.7175   46.9048   31.9006 O   0  0  0  0  0  0  0  0  0  0  0  0
    8.3449   48.0170   33.8278 O   0  0  0  0  0  0  0  0  0  0  0  0
    7.3191   48.0834   31.2095 C   0  0  0  0  0  0  0  0  0  0  0  0
    6.8314   47.7143   29.8336 C   0  0  0  0  0  0  0  0  0  0  0  0
    5.4865   47.3338   29.5831 C   0  0  0  0  0  0  0  0  0  0  0  0
    7.7484   47.7436   28.7675 C   0  0  0  0  0  0  0  0  0  0  0  0
    4.5182   47.2285   30.6426 N   0  0  0  0  0  4  0  0  0  0  0  0
    5.0902   47.0523   28.2625 C   0  0  0  0  0  0  0  0  0  0  0  0
    7.3385   47.4440   27.4677 C   0  0  0  0  0  0  0  0  0  0  0  0
    4.8635   46.6750   31.8536 O   0  0  0  0  0  1  0  0  0  0  0  0
    3.3149   47.4732   30.4167 O   0  0  0  0  0  0  0  0  0  0  0  0
    6.0103   47.1067   27.2145 C   0  0  0  0  0  0  0  0  0  0  0  0
    8.8084   40.1917   34.2087 O   0  0  0  0  0  0  0  0  0  0  0  0
   11.2371   40.7920   33.3667 O   0  0  0  0  0  0  0  0  0  0  0  0
   10.9133   40.6862   31.9944 C   0  0  0  0  0  0  0  0  0  0  0  0
   11.5169   39.3798   31.4410 C   0  0  0  0  0  0  0  0  0  0  0  0
   12.7486   39.0887   32.0763 O   0  0  0  0  0  0  0  0  0  0  0  0
   10.6051   38.1877   31.6659 C   0  0  0  0  0  0  0  0  0  0  0  0
   12.9411   37.6829   32.0278 C   0  0  0  0  0  0  0  0  0  0  0  0
    9.6358   38.0930   30.6503 O   0  0  0  0  0  0  0  0  0  0  0  0
   11.5827   37.0180   31.6936 C   0  0  0  0  0  0  0  0  0  0  0  0
   13.4909   37.2177   33.3239 N   0  0  0  0  0  0  0  0  0  0  0  0
   11.6141   36.3180   30.4675 O   0  0  0  0  0  0  0  0  0  0  0  0
   14.4762   36.3270   33.5733 C   0  0  0  0  0  0  0  0  0  0  0  0
   13.1179   37.6316   34.5689 C   0  0  0  0  0  0  0  0  0  0  0  0
   15.2067   35.6140   32.6743 N   0  0  0  0  0  0  0  0  0  0  0  0
   14.6731   36.2272   34.9186 C   0  0  0  0  0  0  0  0  0  0  0  0
   13.8223   37.0456   35.5785 N   0  0  0  0  0  0  0  0  0  0  0  0
   16.1639   34.7595   33.1550 C   0  0  0  0  0  0  0  0  0  0  0  0
   15.6515   35.3491   35.4134 C   0  0  0  0  0  0  0  0  0  0  0  0
   16.3792   34.6310   34.5045 N   0  0  0  0  0  0  0  0  0  0  0  0
   15.9002   35.1933   36.8092 N   0  0  0  0  0  0  0  0  0  0  0  0
    9.8233   44.9837   32.1449 H   0  0  0  0  0  0  0  0  0  0  0  0
   11.0793   46.3202   34.4898 H   0  0  0  0  0  0  0  0  0  0  0  0
   10.9374   46.8884   32.9070 H   0  0  0  0  0  0  0  0  0  0  0  0
    7.8261   44.9036   33.6964 H   0  0  0  0  0  0  0  0  0  0  0  0
    8.7557   45.7917   34.9482 H   0  0  0  0  0  0  0  0  0  0  0  0
    8.1842   48.7791   31.1380 H   0  0  0  0  0  0  0  0  0  0  0  0
    6.5237   48.6130   31.7765 H   0  0  0  0  0  0  0  0  0  0  0  0
    8.7839   48.0102   28.9413 H   0  0  0  0  0  0  0  0  0  0  0  0
    4.0681   46.7679   28.0465 H   0  0  0  0  0  0  0  0  0  0  0  0
    8.0520   47.4776   26.6544 H   0  0  0  0  0  0  0  0  0  0  0  0
    5.6942   46.8779   26.2049 H   0  0  0  0  0  0  0  0  0  0  0  0
    9.8231   40.7209   31.7583 H   0  0  0  0  0  0  0  0  0  0  0  0
   11.3847   41.5434   31.4678 H   0  0  0  0  0  0  0  0  0  0  0  0
   11.6994   39.5065   30.3488 H   0  0  0  0  0  0  0  0  0  0  0  0
   10.1120   38.2723   32.6632 H   0  0  0  0  0  0  0  0  0  0  0  0
   13.6816   37.4634   31.2269 H   0  0  0  0  0  0  0  0  0  0  0  0
    9.0036   37.3828   30.9349 H   0  0  0  0  0  0  0  0  0  0  0  0
   11.2846   36.3041   32.4928 H   0  0  0  0  0  0  0  0  0  0  0  0
   11.8849   36.9591   29.7588 H   0  0  0  0  0  0  0  0  0  0  0  0
   12.3363   38.3599   34.7441 H   0  0  0  0  0  0  0  0  0  0  0  0
   16.7574   34.1791   32.4623 H   0  0  0  0  0  0  0  0  0  0  0  0
   15.3529   35.7355   37.5141 H   0  0  0  0  0  0  0  0  0  0  0  0
   16.6363   34.5317   37.1418 H   0  0  0  0  0  0  0  0  0  0  0  0
  1  2  2  0
  1  3  1  0
  3  4  1  0
  4  5  1  0
  6  1  1  0
  7  6  1  0
  6  8  1  0
  8  9  1  0
  9 10  1  0
  9 11  2  0
 10 12  1  0
 12 13  1  0
 13 14  2  0
 15 13  1  0
 14 16  1  0
 14 17  1  0
 18 15  2  0
 16 19  1  0
 16 20  2  0
 17 21  2  0
 21 18  1  0
  4 22  2  0
  4 23  1  0
 24 23  1  0
 24 25  1  0
 25 26  1  0
 25 27  1  0
 26 28  1  0
 27 29  1  0
 27 30  1  0
 30 28  1  0
 28 31  1  0
 30 32  1  0
 33 31  1  0
 34 31  1  0
 35 33  2  0
 33 36  1  0
 37 34  2  0
 38 35  1  0
 36 39  2  0
 36 37  1  0
 40 38  2  0
 40 39  1  0
 39 41  1  0
  6 42  1  6
  7 43  1  0
  7 44  1  0
  8 45  1  0
  8 46  1  0
 12 47  1  0
 12 48  1  0
 15 49  1  0
 17 50  1  0
 18 51  1  0
 21 52  1  0
 24 53  1  0
 24 54  1  0
 25 55  1  0
 27 56  1  0
 28 57  1  0
 29 58  1  0
 30 59  1  0
 32 60  1  0
 34 61  1  0
 38 62  1  0
 41 63  1  0
 41 64  1  0
M  CHG  3   5  -1  16   1  19  -1
M  END
>  <EmbedRMS>  (174) 
0.08756320275231494

$$$$

     RDKit          3D

 64 67  0  0  0  0  0  0  0  0999 V2000
   10.2858   43.7714   33.8033 C   0  0  0  0  0  0  0  0  0  0  0  0
   11.4106   43.5867   34.3548 O   0  0  0  0  0  0  0  0  0  0  0  0
    9.3668   42.7309   33.6994 O   0  0  0  0  0  0  0  0  0  0  0  0
    9.8852   41.2345   34.2846 P   0  0  0  0  0  5  0  0  0  0  0  0
   10.3657   41.4710   35.8748 O   0  0  0  0  0  1  0  0  0  0  0  0
    9.9549   45.1135   33.2492 C   0  0  2  0  0  0  0  0  0  0  0  0
   11.0692   46.0340   33.4844 N   0  0  0  0  0  0  0  0  0  0  0  0
    8.6236   45.6638   33.8145 C   0  0  0  0  0  0  0  0  0  0  0  0
    8.5854   45.6660   35.3142 C   0  0  0  0  0  0  0  0  0  0  0  0
    9.1137   46.7524   36.0195 O   0  0  0  0  0  0  0  0  0  0  0  0
    8.1143   44.6692   35.9267 O   0  0  0  0  0  0  0  0  0  0  0  0
    9.4465   46.6930   37.4050 C   0  0  0  0  0  0  0  0  0  0  0  0
   10.7171   45.8996   37.5959 C   0  0  0  0  0  0  0  0  0  0  0  0
   12.0047   46.4745   37.4189 C   0  0  0  0  0  0  0  0  0  0  0  0
   10.6135   44.5387   37.9376 C   0  0  0  0  0  0  0  0  0  0  0  0
   12.1796   47.8558   37.0507 N   0  0  0  0  0  4  0  0  0  0  0  0
   13.1440   45.6733   37.6208 C   0  0  0  0  0  0  0  0  0  0  0  0
   11.7564   43.7594   38.1172 C   0  0  0  0  0  0  0  0  0  0  0  0
   11.3531   48.4491   36.1252 O   0  0  0  0  0  1  0  0  0  0  0  0
   13.1841   48.4842   37.4442 O   0  0  0  0  0  0  0  0  0  0  0  0
   13.0191   44.3261   37.9621 C   0  0  0  0  0  0  0  0  0  0  0  0
    8.8078   40.1915   34.2094 O   0  0  0  0  0  0  0  0  0  0  0  0
   11.2371   40.7898   33.3689 O   0  0  0  0  0  0  0  0  0  0  0  0
   10.9160   40.6890   31.9956 C   0  0  0  0  0  0  0  0  0  0  0  0
   11.5251   39.3874   31.4367 C   0  0  0  0  0  0  0  0  0  0  0  0
   12.7486   39.0880   32.0804 O   0  0  0  0  0  0  0  0  0  0  0  0
   10.6100   38.1910   31.6471 C   0  0  0  0  0  0  0  0  0  0  0  0
   12.9348   37.6808   32.0293 C   0  0  0  0  0  0  0  0  0  0  0  0
    9.6127   38.0875   30.6547 O   0  0  0  0  0  0  0  0  0  0  0  0
   11.5767   37.0134   31.7026 C   0  0  0  0  0  0  0  0  0  0  0  0
   13.4901   37.2165   33.3237 N   0  0  0  0  0  0  0  0  0  0  0  0
   11.6321   36.3232   30.4741 O   0  0  0  0  0  0  0  0  0  0  0  0
   14.4762   36.3266   33.5728 C   0  0  0  0  0  0  0  0  0  0  0  0
   13.1180   37.6308   34.5689 C   0  0  0  0  0  0  0  0  0  0  0  0
   15.2065   35.6135   32.6739 N   0  0  0  0  0  0  0  0  0  0  0  0
   14.6736   36.2272   34.9182 C   0  0  0  0  0  0  0  0  0  0  0  0
   13.8229   37.0453   35.5784 N   0  0  0  0  0  0  0  0  0  0  0  0
   16.1639   34.7593   33.1547 C   0  0  0  0  0  0  0  0  0  0  0  0
   15.6518   35.3491   35.4131 C   0  0  0  0  0  0  0  0  0  0  0  0
   16.3794   34.6309   34.5042 N   0  0  0  0  0  0  0  0  0  0  0  0
   15.9004   35.1933   36.8089 N   0  0  0  0  0  0  0  0  0  0  0  0
    9.8341   44.9948   32.1501 H   0  0  0  0  0  0  0  0  0  0  0  0
   10.8521   46.9500   33.0284 H   0  0  0  0  0  0  0  0  0  0  0  0
   11.1764   46.2123   34.5085 H   0  0  0  0  0  0  0  0  0  0  0  0
    8.4598   46.6988   33.4448 H   0  0  0  0  0  0  0  0  0  0  0  0
    7.7815   45.0469   33.4310 H   0  0  0  0  0  0  0  0  0  0  0  0
    9.5794   47.7233   37.7952 H   0  0  0  0  0  0  0  0  0  0  0  0
    8.6039   46.2519   37.9819 H   0  0  0  0  0  0  0  0  0  0  0  0
    9.6432   44.0773   38.0715 H   0  0  0  0  0  0  0  0  0  0  0  0
   14.1354   46.0897   37.4943 H   0  0  0  0  0  0  0  0  0  0  0  0
   11.6620   42.7137   38.3802 H   0  0  0  0  0  0  0  0  0  0  0  0
   13.9044   43.7197   38.1037 H   0  0  0  0  0  0  0  0  0  0  0  0
    9.8260   40.7205   31.7582 H   0  0  0  0  0  0  0  0  0  0  0  0
   11.3847   41.5507   31.4740 H   0  0  0  0  0  0  0  0  0  0  0  0
   11.7272   39.5290   30.3504 H   0  0  0  0  0  0  0  0  0  0  0  0
   10.1122   38.2731   32.6391 H   0  0  0  0  0  0  0  0  0  0  0  0
   13.6685   37.4592   31.2225 H   0  0  0  0  0  0  0  0  0  0  0  0
   10.0515   38.1112   29.7648 H   0  0  0  0  0  0  0  0  0  0  0  0
   11.2801   36.3129   32.5195 H   0  0  0  0  0  0  0  0  0  0  0  0
   10.8625   35.6961   30.4646 H   0  0  0  0  0  0  0  0  0  0  0  0
   12.3357   38.3583   34.7445 H   0  0  0  0  0  0  0  0  0  0  0  0
   16.7574   34.1787   32.4620 H   0  0  0  0  0  0  0  0  0  0  0  0
   16.6364   34.5315   37.1415 H   0  0  0  0  0  0  0  0  0  0  0  0
   15.3532   35.7356   37.5138 H   0  0  0  0  0  0  0  0  0  0  0  0
  1  2  2  0
  1  3  1  0
  3  4  1  0
  4  5  1  0
  6  1  1  0
  7  6  1  0
  6  8  1  0
  8  9  1  0
  9 10  1  0
  9 11  2  0
 10 12  1  0
 12 13  1  0
 13 14  2  0
 15 13  1  0
 14 16  1  0
 14 17  1  0
 18 15  2  0
 16 19  1  0
 16 20  2  0
 17 21  2  0
 21 18  1  0
  4 22  2  0
  4 23  1  0
 24 23  1  0
 24 25  1  0
 25 26  1  0
 25 27  1  0
 26 28  1  0
 27 29  1  0
 27 30  1  0
 30 28  1  0
 28 31  1  0
 30 32  1  0
 33 31  1  0
 34 31  1  0
 35 33  2  0
 33 36  1  0
 37 34  2  0
 38 35  1  0
 36 39  2  0
 36 37  1  0
 40 38  2  0
 40 39  1  0
 39 41  1  0
  6 42  1  6
  7 43  1  0
  7 44  1  0
  8 45  1  0
  8 46  1  0
 12 47  1  0
 12 48  1  0
 15 49  1  0
 17 50  1  0
 18 51  1  0
 21 52  1  0
 24 53  1  0
 24 54  1  0
 25 55  1  0
 27 56  1  0
 28 57  1  0
 29 58  1  0
 30 59  1  0
 32 60  1  0
 34 61  1  0
 38 62  1  0
 41 63  1  0
 41 64  1  0
M  CHG  3   5  -1  16   1  19  -1
M  END
>  <EmbedRMS>  (175) 
0.08793251737578515

$$$$

     RDKit          3D

 64 67  0  0  0  0  0  0  0  0999 V2000
   10.2866   43.7716   33.8030 C   0  0  0  0  0  0  0  0  0  0  0  0
   11.4105   43.5862   34.3556 O   0  0  0  0  0  0  0  0  0  0  0  0
    9.3669   42.7312   33.7004 O   0  0  0  0  0  0  0  0  0  0  0  0
    9.8847   41.2345   34.2852 P   0  0  0  0  0  5  0  0  0  0  0  0
   10.3662   41.4693   35.8748 O   0  0  0  0  0  1  0  0  0  0  0  0
    9.9562   45.1134   33.2473 C   0  0  2  0  0  0  0  0  0  0  0  0
   11.0674   46.0366   33.4849 N   0  0  0  0  0  0  0  0  0  0  0  0
    8.6486   45.6632   33.8548 C   0  0  0  0  0  0  0  0  0  0  0  0
    8.7603   45.9374   35.3268 C   0  0  0  0  0  0  0  0  0  0  0  0
    8.9285   44.8718   36.2149 O   0  0  0  0  0  0  0  0  0  0  0  0
    8.7017   47.1240   35.7506 O   0  0  0  0  0  0  0  0  0  0  0  0
    8.9446   45.0355   37.6282 C   0  0  0  0  0  0  0  0  0  0  0  0
    9.3038   43.7227   38.2711 C   0  0  0  0  0  0  0  0  0  0  0  0
   10.6456   43.3618   38.5655 C   0  0  0  0  0  0  0  0  0  0  0  0
    8.2678   42.8182   38.5641 C   0  0  0  0  0  0  0  0  0  0  0  0
   11.7535   44.2161   38.2282 N   0  0  0  0  0  4  0  0  0  0  0  0
   10.8989   42.1314   39.1997 C   0  0  0  0  0  0  0  0  0  0  0  0
    8.5429   41.5946   39.1759 C   0  0  0  0  0  0  0  0  0  0  0  0
   11.7833   44.8815   37.0248 O   0  0  0  0  0  1  0  0  0  0  0  0
   12.7783   44.2218   38.9414 O   0  0  0  0  0  0  0  0  0  0  0  0
    9.8549   41.2553   39.5002 C   0  0  0  0  0  0  0  0  0  0  0  0
    8.8073   40.1915   34.2097 O   0  0  0  0  0  0  0  0  0  0  0  0
   11.2364   40.7903   33.3695 O   0  0  0  0  0  0  0  0  0  0  0  0
   10.9151   40.6898   31.9964 C   0  0  0  0  0  0  0  0  0  0  0  0
   11.5268   39.3899   31.4376 C   0  0  0  0  0  0  0  0  0  0  0  0
   12.7506   39.0917   32.0840 O   0  0  0  0  0  0  0  0  0  0  0  0
   10.6121   38.1916   31.6453 C   0  0  0  0  0  0  0  0  0  0  0  0
   12.9428   37.6854   32.0296 C   0  0  0  0  0  0  0  0  0  0  0  0
    9.6070   38.0858   30.6603 O   0  0  0  0  0  0  0  0  0  0  0  0
   11.5845   37.0187   31.6880 C   0  0  0  0  0  0  0  0  0  0  0  0
   13.4898   37.2164   33.3251 N   0  0  0  0  0  0  0  0  0  0  0  0
   11.6202   36.3063   30.4693 O   0  0  0  0  0  0  0  0  0  0  0  0
   14.4758   36.3264   33.5739 C   0  0  0  0  0  0  0  0  0  0  0  0
   13.1175   37.6309   34.5700 C   0  0  0  0  0  0  0  0  0  0  0  0
   15.2064   35.6139   32.6746 N   0  0  0  0  0  0  0  0  0  0  0  0
   14.6731   36.2268   34.9191 C   0  0  0  0  0  0  0  0  0  0  0  0
   13.8224   37.0451   35.5793 N   0  0  0  0  0  0  0  0  0  0  0  0
   16.1639   34.7596   33.1551 C   0  0  0  0  0  0  0  0  0  0  0  0
   15.6517   35.3489   35.4136 C   0  0  0  0  0  0  0  0  0  0  0  0
   16.3795   34.6310   34.5046 N   0  0  0  0  0  0  0  0  0  0  0  0
   15.9006   35.1931   36.8094 N   0  0  0  0  0  0  0  0  0  0  0  0
    9.8059   44.9992   32.1501 H   0  0  0  0  0  0  0  0  0  0  0  0
   11.8872   45.7208   32.9159 H   0  0  0  0  0  0  0  0  0  0  0  0
   10.8057   46.9744   33.1022 H   0  0  0  0  0  0  0  0  0  0  0  0
    7.8214   44.9401   33.6872 H   0  0  0  0  0  0  0  0  0  0  0  0
    8.3683   46.5992   33.3236 H   0  0  0  0  0  0  0  0  0  0  0  0
    9.6624   45.8297   37.9240 H   0  0  0  0  0  0  0  0  0  0  0  0
    7.9398   45.3686   37.9691 H   0  0  0  0  0  0  0  0  0  0  0  0
    7.2407   43.0647   38.3240 H   0  0  0  0  0  0  0  0  0  0  0  0
   11.9130   41.8379   39.4397 H   0  0  0  0  0  0  0  0  0  0  0  0
    7.7360   40.9095   39.4017 H   0  0  0  0  0  0  0  0  0  0  0  0
   10.0654   40.3066   39.9769 H   0  0  0  0  0  0  0  0  0  0  0  0
    9.8250   40.7189   31.7593 H   0  0  0  0  0  0  0  0  0  0  0  0
   11.3820   41.5528   31.4752 H   0  0  0  0  0  0  0  0  0  0  0  0
   11.7316   39.5341   30.3523 H   0  0  0  0  0  0  0  0  0  0  0  0
   10.1213   38.2681   32.6413 H   0  0  0  0  0  0  0  0  0  0  0  0
   13.6882   37.4710   31.2320 H   0  0  0  0  0  0  0  0  0  0  0  0
   10.0257   38.1752   29.7657 H   0  0  0  0  0  0  0  0  0  0  0  0
   11.2796   36.3124   32.4916 H   0  0  0  0  0  0  0  0  0  0  0  0
   11.9872   36.9100   29.7715 H   0  0  0  0  0  0  0  0  0  0  0  0
   12.3366   38.3598   34.7455 H   0  0  0  0  0  0  0  0  0  0  0  0
   16.7576   34.1795   32.4622 H   0  0  0  0  0  0  0  0  0  0  0  0
   15.3532   35.7352   37.5144 H   0  0  0  0  0  0  0  0  0  0  0  0
   16.6368   34.5316   37.1418 H   0  0  0  0  0  0  0  0  0  0  0  0
  1  2  2  0
  1  3  1  0
  3  4  1  0
  4  5  1  0
  6  1  1  0
  7  6  1  0
  6  8  1  0
  8  9  1  0
  9 10  1  0
  9 11  2  0
 10 12  1  0
 12 13  1  0
 13 14  2  0
 15 13  1  0
 14 16  1  0
 14 17  1  0
 18 15  2  0
 16 19  1  0
 16 20  2  0
 17 21  2  0
 21 18  1  0
  4 22  2  0
  4 23  1  0
 24 23  1  0
 24 25  1  0
 25 26  1  0
 25 27  1  0
 26 28  1  0
 27 29  1  0
 27 30  1  0
 30 28  1  0
 28 31  1  0
 30 32  1  0
 33 31  1  0
 34 31  1  0
 35 33  2  0
 33 36  1  0
 37 34  2  0
 38 35  1  0
 36 39  2  0
 36 37  1  0
 40 38  2  0
 40 39  1  0
 39 41  1  0
  6 42  1  6
  7 43  1  0
  7 44  1  0
  8 45  1  0
  8 46  1  0
 12 47  1  0
 12 48  1  0
 15 49  1  0
 17 50  1  0
 18 51  1  0
 21 52  1  0
 24 53  1  0
 24 54  1  0
 25 55  1  0
 27 56  1  0
 28 57  1  0
 29 58  1  0
 30 59  1  0
 32 60  1  0
 34 61  1  0
 38 62  1  0
 41 63  1  0
 41 64  1  0
M  CHG  3   5  -1  16   1  19  -1
M  END
>  <EmbedRMS>  (176) 
0.08695582773725773

$$$$

     RDKit          3D

 64 67  0  0  0  0  0  0  0  0999 V2000
   10.2849   43.7725   33.8068 C   0  0  0  0  0  0  0  0  0  0  0  0
   11.4105   43.5874   34.3563 O   0  0  0  0  0  0  0  0  0  0  0  0
    9.3664   42.7313   33.7016 O   0  0  0  0  0  0  0  0  0  0  0  0
    9.8852   41.2342   34.2849 P   0  0  0  0  0  5  0  0  0  0  0  0
   10.3653   41.4697   35.8754 O   0  0  0  0  0  1  0  0  0  0  0  0
    9.9582   45.1107   33.2438 C   0  0  2  0  0  0  0  0  0  0  0  0
   11.0675   46.0366   33.4847 N   0  0  0  0  0  0  0  0  0  0  0  0
    8.6199   45.6578   33.7899 C   0  0  0  0  0  0  0  0  0  0  0  0
    8.6108   45.8069   35.2824 C   0  0  0  0  0  0  0  0  0  0  0  0
    8.9674   47.0334   35.8535 O   0  0  0  0  0  0  0  0  0  0  0  0
    8.3071   44.8216   36.0094 O   0  0  0  0  0  0  0  0  0  0  0  0
    8.9746   47.2675   37.2605 C   0  0  0  0  0  0  0  0  0  0  0  0
    7.5677   47.2709   37.8135 C   0  0  0  0  0  0  0  0  0  0  0  0
    6.5401   48.0847   37.2645 C   0  0  0  0  0  0  0  0  0  0  0  0
    7.2629   46.4078   38.8822 C   0  0  0  0  0  0  0  0  0  0  0  0
    6.7924   49.0019   36.1842 N   0  0  0  0  0  4  0  0  0  0  0  0
    5.2355   47.9807   37.7816 C   0  0  0  0  0  0  0  0  0  0  0  0
    5.9654   46.3322   39.3896 C   0  0  0  0  0  0  0  0  0  0  0  0
    7.9471   49.7484   36.1517 O   0  0  0  0  0  1  0  0  0  0  0  0
    5.8962   49.2481   35.3506 O   0  0  0  0  0  0  0  0  0  0  0  0
    4.9527   47.1133   38.8373 C   0  0  0  0  0  0  0  0  0  0  0  0
    8.8081   40.1911   34.2084 O   0  0  0  0  0  0  0  0  0  0  0  0
   11.2380   40.7910   33.3698 O   0  0  0  0  0  0  0  0  0  0  0  0
   10.9185   40.6906   31.9963 C   0  0  0  0  0  0  0  0  0  0  0  0
   11.5174   39.3824   31.4413 C   0  0  0  0  0  0  0  0  0  0  0  0
   12.7494   39.0893   32.0757 O   0  0  0  0  0  0  0  0  0  0  0  0
   10.6036   38.1899   31.6660 C   0  0  0  0  0  0  0  0  0  0  0  0
   12.9401   37.6834   32.0276 C   0  0  0  0  0  0  0  0  0  0  0  0
    9.6376   38.0785   30.6474 O   0  0  0  0  0  0  0  0  0  0  0  0
   11.5803   37.0204   31.6937 C   0  0  0  0  0  0  0  0  0  0  0  0
   13.4902   37.2177   33.3237 N   0  0  0  0  0  0  0  0  0  0  0  0
   11.6118   36.3193   30.4680 O   0  0  0  0  0  0  0  0  0  0  0  0
   14.4759   36.3271   33.5731 C   0  0  0  0  0  0  0  0  0  0  0  0
   13.1176   37.6317   34.5688 C   0  0  0  0  0  0  0  0  0  0  0  0
   15.2064   35.6142   32.6742 N   0  0  0  0  0  0  0  0  0  0  0  0
   14.6729   36.2274   34.9184 C   0  0  0  0  0  0  0  0  0  0  0  0
   13.8221   37.0457   35.5783 N   0  0  0  0  0  0  0  0  0  0  0  0
   16.1637   34.7597   33.1549 C   0  0  0  0  0  0  0  0  0  0  0  0
   15.6514   35.3493   35.4133 C   0  0  0  0  0  0  0  0  0  0  0  0
   16.3791   34.6312   34.5044 N   0  0  0  0  0  0  0  0  0  0  0  0
   15.9001   35.1935   36.8091 N   0  0  0  0  0  0  0  0  0  0  0  0
    9.8486   44.9837   32.1445 H   0  0  0  0  0  0  0  0  0  0  0  0
   11.1603   46.2300   34.5085 H   0  0  0  0  0  0  0  0  0  0  0  0
   10.8532   46.9458   33.0140 H   0  0  0  0  0  0  0  0  0  0  0  0
    7.7914   44.9807   33.4869 H   0  0  0  0  0  0  0  0  0  0  0  0
    8.4113   46.6466   33.3274 H   0  0  0  0  0  0  0  0  0  0  0  0
    9.4531   48.2462   37.4678 H   0  0  0  0  0  0  0  0  0  0  0  0
    9.6078   46.4971   37.7533 H   0  0  0  0  0  0  0  0  0  0  0  0
    8.0295   45.7795   39.3189 H   0  0  0  0  0  0  0  0  0  0  0  0
    4.4358   48.5872   37.3753 H   0  0  0  0  0  0  0  0  0  0  0  0
    5.7436   45.6608   40.2092 H   0  0  0  0  0  0  0  0  0  0  0  0
    3.9461   47.0496   39.2301 H   0  0  0  0  0  0  0  0  0  0  0  0
    9.8306   40.7396   31.7564 H   0  0  0  0  0  0  0  0  0  0  0  0
   11.3992   41.5455   31.4745 H   0  0  0  0  0  0  0  0  0  0  0  0
   11.6988   39.5093   30.3491 H   0  0  0  0  0  0  0  0  0  0  0  0
   10.1129   38.2588   32.6664 H   0  0  0  0  0  0  0  0  0  0  0  0
   13.6800   37.4629   31.2265 H   0  0  0  0  0  0  0  0  0  0  0  0
    8.8952   38.6907   30.8892 H   0  0  0  0  0  0  0  0  0  0  0  0
   11.2831   36.3060   32.4929 H   0  0  0  0  0  0  0  0  0  0  0  0
   11.8859   36.9590   29.7593 H   0  0  0  0  0  0  0  0  0  0  0  0
   12.3360   38.3600   34.7442 H   0  0  0  0  0  0  0  0  0  0  0  0
   16.7572   34.1793   32.4621 H   0  0  0  0  0  0  0  0  0  0  0  0
   16.6362   34.5318   37.1416 H   0  0  0  0  0  0  0  0  0  0  0  0
   15.3528   35.7356   37.5140 H   0  0  0  0  0  0  0  0  0  0  0  0
  1  2  2  0
  1  3  1  0
  3  4  1  0
  4  5  1  0
  6  1  1  0
  7  6  1  0
  6  8  1  0
  8  9  1  0
  9 10  1  0
  9 11  2  0
 10 12  1  0
 12 13  1  0
 13 14  2  0
 15 13  1  0
 14 16  1  0
 14 17  1  0
 18 15  2  0
 16 19  1  0
 16 20  2  0
 17 21  2  0
 21 18  1  0
  4 22  2  0
  4 23  1  0
 24 23  1  0
 24 25  1  0
 25 26  1  0
 25 27  1  0
 26 28  1  0
 27 29  1  0
 27 30  1  0
 30 28  1  0
 28 31  1  0
 30 32  1  0
 33 31  1  0
 34 31  1  0
 35 33  2  0
 33 36  1  0
 37 34  2  0
 38 35  1  0
 36 39  2  0
 36 37  1  0
 40 38  2  0
 40 39  1  0
 39 41  1  0
  6 42  1  6
  7 43  1  0
  7 44  1  0
  8 45  1  0
  8 46  1  0
 12 47  1  0
 12 48  1  0
 15 49  1  0
 17 50  1  0
 18 51  1  0
 21 52  1  0
 24 53  1  0
 24 54  1  0
 25 55  1  0
 27 56  1  0
 28 57  1  0
 29 58  1  0
 30 59  1  0
 32 60  1  0
 34 61  1  0
 38 62  1  0
 41 63  1  0
 41 64  1  0
M  CHG  3   5  -1  16   1  19  -1
M  END
>  <EmbedRMS>  (177) 
0.08819873129197334

$$$$

     RDKit          3D

 64 67  0  0  0  0  0  0  0  0999 V2000
   10.2853   43.7722   33.8062 C   0  0  0  0  0  0  0  0  0  0  0  0
   11.4106   43.5853   34.3542 O   0  0  0  0  0  0  0  0  0  0  0  0
    9.3667   42.7311   33.7013 O   0  0  0  0  0  0  0  0  0  0  0  0
    9.8856   41.2340   34.2844 P   0  0  0  0  0  5  0  0  0  0  0  0
   10.3655   41.4696   35.8750 O   0  0  0  0  0  1  0  0  0  0  0  0
    9.9588   45.1113   33.2436 C   0  0  2  0  0  0  0  0  0  0  0  0
   11.0667   46.0375   33.4859 N   0  0  0  0  0  0  0  0  0  0  0  0
    8.6417   45.6613   33.8306 C   0  0  0  0  0  0  0  0  0  0  0  0
    8.7559   46.0719   35.2717 C   0  0  0  0  0  0  0  0  0  0  0  0
    9.2361   45.1649   36.2247 O   0  0  0  0  0  0  0  0  0  0  0  0
    8.3779   47.2243   35.6186 O   0  0  0  0  0  0  0  0  0  0  0  0
    9.2814   45.4517   37.6220 C   0  0  0  0  0  0  0  0  0  0  0  0
   10.2865   46.5415   37.9223 C   0  0  0  0  0  0  0  0  0  0  0  0
   11.6540   46.4387   37.5494 C   0  0  0  0  0  0  0  0  0  0  0  0
    9.8323   47.7191   38.5454 C   0  0  0  0  0  0  0  0  0  0  0  0
   12.1873   45.2542   36.9302 N   0  0  0  0  0  4  0  0  0  0  0  0
   12.5111   47.5301   37.7842 C   0  0  0  0  0  0  0  0  0  0  0  0
   10.7034   48.7827   38.7826 C   0  0  0  0  0  0  0  0  0  0  0  0
   11.7997   44.0054   37.3558 O   0  0  0  0  0  1  0  0  0  0  0  0
   13.1428   45.3437   36.1314 O   0  0  0  0  0  0  0  0  0  0  0  0
   12.0389   48.6904   38.3982 C   0  0  0  0  0  0  0  0  0  0  0  0
    8.8082   40.1910   34.2082 O   0  0  0  0  0  0  0  0  0  0  0  0
   11.2384   40.7903   33.3690 O   0  0  0  0  0  0  0  0  0  0  0  0
   10.9193   40.6896   31.9952 C   0  0  0  0  0  0  0  0  0  0  0  0
   11.5171   39.3803   31.4399 C   0  0  0  0  0  0  0  0  0  0  0  0
   12.7478   39.0862   32.0735 O   0  0  0  0  0  0  0  0  0  0  0  0
   10.6031   38.1892   31.6667 C   0  0  0  0  0  0  0  0  0  0  0  0
   12.9335   37.6797   32.0280 C   0  0  0  0  0  0  0  0  0  0  0  0
    9.6397   38.0778   30.6456 O   0  0  0  0  0  0  0  0  0  0  0  0
   11.5739   37.0155   31.7057 C   0  0  0  0  0  0  0  0  0  0  0  0
   13.4903   37.2178   33.3231 N   0  0  0  0  0  0  0  0  0  0  0  0
   11.6211   36.3377   30.4695 O   0  0  0  0  0  0  0  0  0  0  0  0
   14.4761   36.3273   33.5725 C   0  0  0  0  0  0  0  0  0  0  0  0
   13.1179   37.6317   34.5684 C   0  0  0  0  0  0  0  0  0  0  0  0
   15.2063   35.6139   32.6737 N   0  0  0  0  0  0  0  0  0  0  0  0
   14.6733   36.2277   34.9180 C   0  0  0  0  0  0  0  0  0  0  0  0
   13.8226   37.0459   35.5779 N   0  0  0  0  0  0  0  0  0  0  0  0
   16.1636   34.7594   33.1546 C   0  0  0  0  0  0  0  0  0  0  0  0
   15.6515   35.3494   35.4129 C   0  0  0  0  0  0  0  0  0  0  0  0
   16.3791   34.6311   34.5041 N   0  0  0  0  0  0  0  0  0  0  0  0
   15.9001   35.1935   36.8088 N   0  0  0  0  0  0  0  0  0  0  0  0
    9.8210   44.9888   32.1455 H   0  0  0  0  0  0  0  0  0  0  0  0
   11.8914   45.7222   32.9237 H   0  0  0  0  0  0  0  0  0  0  0  0
   10.8049   46.9738   33.0997 H   0  0  0  0  0  0  0  0  0  0  0  0
    8.3274   46.5401   33.2255 H   0  0  0  0  0  0  0  0  0  0  0  0
    7.8339   44.9041   33.7362 H   0  0  0  0  0  0  0  0  0  0  0  0
    9.5491   44.5320   38.1796 H   0  0  0  0  0  0  0  0  0  0  0  0
    8.2612   45.7321   37.9651 H   0  0  0  0  0  0  0  0  0  0  0  0
    8.7947   47.8230   38.8379 H   0  0  0  0  0  0  0  0  0  0  0  0
   13.5558   47.4760   37.5052 H   0  0  0  0  0  0  0  0  0  0  0  0
   10.3395   49.6839   39.2590 H   0  0  0  0  0  0  0  0  0  0  0  0
   12.7117   49.5187   38.5794 H   0  0  0  0  0  0  0  0  0  0  0  0
   11.4010   41.5439   31.4733 H   0  0  0  0  0  0  0  0  0  0  0  0
    9.8315   40.7398   31.7552 H   0  0  0  0  0  0  0  0  0  0  0  0
   11.6982   39.5046   30.3473 H   0  0  0  0  0  0  0  0  0  0  0  0
   10.1089   38.2632   32.6650 H   0  0  0  0  0  0  0  0  0  0  0  0
   13.6656   37.4542   31.2207 H   0  0  0  0  0  0  0  0  0  0  0  0
    8.8966   38.6902   30.8851 H   0  0  0  0  0  0  0  0  0  0  0  0
   11.2846   36.3061   32.5175 H   0  0  0  0  0  0  0  0  0  0  0  0
   10.8523   35.7095   30.4590 H   0  0  0  0  0  0  0  0  0  0  0  0
   12.3353   38.3589   34.7440 H   0  0  0  0  0  0  0  0  0  0  0  0
   16.7570   34.1788   32.4619 H   0  0  0  0  0  0  0  0  0  0  0  0
   16.6360   34.5317   37.1413 H   0  0  0  0  0  0  0  0  0  0  0  0
   15.3529   35.7359   37.5136 H   0  0  0  0  0  0  0  0  0  0  0  0
  1  2  2  0
  1  3  1  0
  3  4  1  0
  4  5  1  0
  6  1  1  0
  7  6  1  0
  6  8  1  0
  8  9  1  0
  9 10  1  0
  9 11  2  0
 10 12  1  0
 12 13  1  0
 13 14  2  0
 15 13  1  0
 14 16  1  0
 14 17  1  0
 18 15  2  0
 16 19  1  0
 16 20  2  0
 17 21  2  0
 21 18  1  0
  4 22  2  0
  4 23  1  0
 24 23  1  0
 24 25  1  0
 25 26  1  0
 25 27  1  0
 26 28  1  0
 27 29  1  0
 27 30  1  0
 30 28  1  0
 28 31  1  0
 30 32  1  0
 33 31  1  0
 34 31  1  0
 35 33  2  0
 33 36  1  0
 37 34  2  0
 38 35  1  0
 36 39  2  0
 36 37  1  0
 40 38  2  0
 40 39  1  0
 39 41  1  0
  6 42  1  6
  7 43  1  0
  7 44  1  0
  8 45  1  0
  8 46  1  0
 12 47  1  0
 12 48  1  0
 15 49  1  0
 17 50  1  0
 18 51  1  0
 21 52  1  0
 24 53  1  0
 24 54  1  0
 25 55  1  0
 27 56  1  0
 28 57  1  0
 29 58  1  0
 30 59  1  0
 32 60  1  0
 34 61  1  0
 38 62  1  0
 41 63  1  0
 41 64  1  0
M  CHG  3   5  -1  16   1  19  -1
M  END
>  <EmbedRMS>  (178) 
0.08934353363976096

$$$$

     RDKit          3D

 64 67  0  0  0  0  0  0  0  0999 V2000
   10.2862   43.7710   33.8098 C   0  0  0  0  0  0  0  0  0  0  0  0
   11.4100   43.5818   34.3616 O   0  0  0  0  0  0  0  0  0  0  0  0
    9.3668   42.7308   33.7016 O   0  0  0  0  0  0  0  0  0  0  0  0
    9.8849   41.2328   34.2832 P   0  0  0  0  0  5  0  0  0  0  0  0
   10.3662   41.4673   35.8737 O   0  0  0  0  0  1  0  0  0  0  0  0
    9.9604   45.1127   33.2478 C   0  0  2  0  0  0  0  0  0  0  0  0
   11.0659   46.0478   33.4746 N   0  0  0  0  0  0  0  0  0  0  0  0
    8.6654   45.6572   33.8735 C   0  0  0  0  0  0  0  0  0  0  0  0
    8.2793   46.9667   33.2590 C   0  0  0  0  0  0  0  0  0  0  0  0
    8.7756   48.1535   33.8049 O   0  0  0  0  0  0  0  0  0  0  0  0
    7.5459   46.9868   32.2329 O   0  0  0  0  0  0  0  0  0  0  0  0
    8.4796   49.4364   33.2586 C   0  0  0  0  0  0  0  0  0  0  0  0
    9.1499   50.5315   34.0569 C   0  0  0  0  0  0  0  0  0  0  0  0
    9.5180   51.7660   33.4587 C   0  0  0  0  0  0  0  0  0  0  0  0
    9.3917   50.3402   35.4320 C   0  0  0  0  0  0  0  0  0  0  0  0
    9.2032   52.0636   32.0870 N   0  0  0  0  0  4  0  0  0  0  0  0
   10.1925   52.7299   34.2301 C   0  0  0  0  0  0  0  0  0  0  0  0
   10.0453   51.3175   36.1839 C   0  0  0  0  0  0  0  0  0  0  0  0
    7.9703   51.7381   31.5702 O   0  0  0  0  0  1  0  0  0  0  0  0
    9.9664   52.7847   31.4116 O   0  0  0  0  0  0  0  0  0  0  0  0
   10.4555   52.5047   35.5815 C   0  0  0  0  0  0  0  0  0  0  0  0
    8.8070   40.1904   34.2076 O   0  0  0  0  0  0  0  0  0  0  0  0
   11.2367   40.7900   33.3660 O   0  0  0  0  0  0  0  0  0  0  0  0
   10.9141   40.6849   31.9931 C   0  0  0  0  0  0  0  0  0  0  0  0
   11.5166   39.3773   31.4393 C   0  0  0  0  0  0  0  0  0  0  0  0
   12.7471   39.0854   32.0739 O   0  0  0  0  0  0  0  0  0  0  0  0
   10.6047   38.1867   31.6669 C   0  0  0  0  0  0  0  0  0  0  0  0
   12.9345   37.6791   32.0282 C   0  0  0  0  0  0  0  0  0  0  0  0
    9.6378   38.0917   30.6488 O   0  0  0  0  0  0  0  0  0  0  0  0
   11.5761   37.0129   31.7056 C   0  0  0  0  0  0  0  0  0  0  0  0
   13.4909   37.2177   33.3233 N   0  0  0  0  0  0  0  0  0  0  0  0
   11.6234   36.3371   30.4683 O   0  0  0  0  0  0  0  0  0  0  0  0
   14.4765   36.3272   33.5727 C   0  0  0  0  0  0  0  0  0  0  0  0
   13.1182   37.6315   34.5685 C   0  0  0  0  0  0  0  0  0  0  0  0
   15.2066   35.6138   32.6739 N   0  0  0  0  0  0  0  0  0  0  0  0
   14.6736   36.2276   34.9182 C   0  0  0  0  0  0  0  0  0  0  0  0
   13.8227   37.0457   35.5781 N   0  0  0  0  0  0  0  0  0  0  0  0
   16.1638   34.7593   33.1548 C   0  0  0  0  0  0  0  0  0  0  0  0
   15.6517   35.3493   35.4131 C   0  0  0  0  0  0  0  0  0  0  0  0
   16.3792   34.6309   34.5043 N   0  0  0  0  0  0  0  0  0  0  0  0
   15.9003   35.1934   36.8090 N   0  0  0  0  0  0  0  0  0  0  0  0
    9.8082   44.9962   32.1517 H   0  0  0  0  0  0  0  0  0  0  0  0
   11.9223   45.7011   32.9829 H   0  0  0  0  0  0  0  0  0  0  0  0
   11.2754   46.1195   34.4979 H   0  0  0  0  0  0  0  0  0  0  0  0
    7.8357   44.9321   33.7210 H   0  0  0  0  0  0  0  0  0  0  0  0
    8.7989   45.7931   34.9691 H   0  0  0  0  0  0  0  0  0  0  0  0
    7.3809   49.6020   33.2714 H   0  0  0  0  0  0  0  0  0  0  0  0
    8.8424   49.4531   32.2086 H   0  0  0  0  0  0  0  0  0  0  0  0
    9.0844   49.4277   35.9274 H   0  0  0  0  0  0  0  0  0  0  0  0
   10.4916   53.6724   33.7890 H   0  0  0  0  0  0  0  0  0  0  0  0
   10.2363   51.1520   37.2364 H   0  0  0  0  0  0  0  0  0  0  0  0
   10.9648   53.2596   36.1666 H   0  0  0  0  0  0  0  0  0  0  0  0
    9.8242   40.7212   31.7563 H   0  0  0  0  0  0  0  0  0  0  0  0
   11.3872   41.5415   31.4671 H   0  0  0  0  0  0  0  0  0  0  0  0
   11.6986   39.5012   30.3467 H   0  0  0  0  0  0  0  0  0  0  0  0
   10.1095   38.2770   32.6628 H   0  0  0  0  0  0  0  0  0  0  0  0
   13.6672   37.4545   31.2213 H   0  0  0  0  0  0  0  0  0  0  0  0
    8.9779   37.4156   30.9533 H   0  0  0  0  0  0  0  0  0  0  0  0
   11.2861   36.3040   32.5176 H   0  0  0  0  0  0  0  0  0  0  0  0
   10.8690   35.6918   30.4657 H   0  0  0  0  0  0  0  0  0  0  0  0
   12.3356   38.3587   34.7440 H   0  0  0  0  0  0  0  0  0  0  0  0
   16.7572   34.1786   32.4621 H   0  0  0  0  0  0  0  0  0  0  0  0
   16.6361   34.5315   37.1415 H   0  0  0  0  0  0  0  0  0  0  0  0
   15.3530   35.7358   37.5138 H   0  0  0  0  0  0  0  0  0  0  0  0
  1  2  2  0
  1  3  1  0
  3  4  1  0
  4  5  1  0
  6  1  1  0
  7  6  1  0
  6  8  1  0
  8  9  1  0
  9 10  1  0
  9 11  2  0
 10 12  1  0
 12 13  1  0
 13 14  2  0
 15 13  1  0
 14 16  1  0
 14 17  1  0
 18 15  2  0
 16 19  1  0
 16 20  2  0
 17 21  2  0
 21 18  1  0
  4 22  2  0
  4 23  1  0
 24 23  1  0
 24 25  1  0
 25 26  1  0
 25 27  1  0
 26 28  1  0
 27 29  1  0
 27 30  1  0
 30 28  1  0
 28 31  1  0
 30 32  1  0
 33 31  1  0
 34 31  1  0
 35 33  2  0
 33 36  1  0
 37 34  2  0
 38 35  1  0
 36 39  2  0
 36 37  1  0
 40 38  2  0
 40 39  1  0
 39 41  1  0
  6 42  1  6
  7 43  1  0
  7 44  1  0
  8 45  1  0
  8 46  1  0
 12 47  1  0
 12 48  1  0
 15 49  1  0
 17 50  1  0
 18 51  1  0
 21 52  1  0
 24 53  1  0
 24 54  1  0
 25 55  1  0
 27 56  1  0
 28 57  1  0
 29 58  1  0
 30 59  1  0
 32 60  1  0
 34 61  1  0
 38 62  1  0
 41 63  1  0
 41 64  1  0
M  CHG  3   5  -1  16   1  19  -1
M  END
>  <EmbedRMS>  (179) 
0.08952025433197874

$$$$

     RDKit          3D

 64 67  0  0  0  0  0  0  0  0999 V2000
   10.2844   43.7742   33.8069 C   0  0  0  0  0  0  0  0  0  0  0  0
   11.4068   43.5903   34.3637 O   0  0  0  0  0  0  0  0  0  0  0  0
    9.3681   42.7309   33.6988 O   0  0  0  0  0  0  0  0  0  0  0  0
    9.8860   41.2342   34.2839 P   0  0  0  0  0  5  0  0  0  0  0  0
   10.3656   41.4697   35.8747 O   0  0  0  0  0  1  0  0  0  0  0  0
    9.9491   45.1164   33.2547 C   0  0  2  0  0  0  0  0  0  0  0  0
   11.0755   46.0280   33.4732 N   0  0  0  0  0  0  0  0  0  0  0  0
    8.6781   45.6533   33.9422 C   0  0  0  0  0  0  0  0  0  0  0  0
    8.1793   46.9029   33.2849 C   0  0  0  0  0  0  0  0  0  0  0  0
    8.4947   48.1452   33.8414 O   0  0  0  0  0  0  0  0  0  0  0  0
    7.5062   46.8258   32.2208 O   0  0  0  0  0  0  0  0  0  0  0  0
    8.0756   49.3768   33.2623 C   0  0  0  0  0  0  0  0  0  0  0  0
    8.5501   50.5273   34.1152 C   0  0  0  0  0  0  0  0  0  0  0  0
    8.2290   50.6295   35.4976 C   0  0  0  0  0  0  0  0  0  0  0  0
    9.3688   51.5095   33.5269 C   0  0  0  0  0  0  0  0  0  0  0  0
    7.3883   49.6681   36.1629 N   0  0  0  0  0  4  0  0  0  0  0  0
    8.7642   51.6928   36.2466 C   0  0  0  0  0  0  0  0  0  0  0  0
    9.8753   52.5645   34.2866 C   0  0  0  0  0  0  0  0  0  0  0  0
    7.5613   49.4175   37.5049 O   0  0  0  0  0  1  0  0  0  0  0  0
    6.3985   49.1747   35.5851 O   0  0  0  0  0  0  0  0  0  0  0  0
    9.5773   52.6535   35.6444 C   0  0  0  0  0  0  0  0  0  0  0  0
    8.8086   40.1912   34.2076 O   0  0  0  0  0  0  0  0  0  0  0  0
   11.2387   40.7906   33.3693 O   0  0  0  0  0  0  0  0  0  0  0  0
   10.9192   40.6905   31.9959 C   0  0  0  0  0  0  0  0  0  0  0  0
   11.5177   39.3823   31.4410 C   0  0  0  0  0  0  0  0  0  0  0  0
   12.7496   39.0891   32.0754 O   0  0  0  0  0  0  0  0  0  0  0  0
   10.6037   38.1899   31.6659 C   0  0  0  0  0  0  0  0  0  0  0  0
   12.9401   37.6832   32.0276 C   0  0  0  0  0  0  0  0  0  0  0  0
    9.6377   38.0785   30.6474 O   0  0  0  0  0  0  0  0  0  0  0  0
   11.5804   37.0203   31.6937 C   0  0  0  0  0  0  0  0  0  0  0  0
   13.4902   37.2177   33.3237 N   0  0  0  0  0  0  0  0  0  0  0  0
   11.6117   36.3192   30.4680 O   0  0  0  0  0  0  0  0  0  0  0  0
   14.4759   36.3271   33.5731 C   0  0  0  0  0  0  0  0  0  0  0  0
   13.1176   37.6317   34.5688 C   0  0  0  0  0  0  0  0  0  0  0  0
   15.2064   35.6141   32.6742 N   0  0  0  0  0  0  0  0  0  0  0  0
   14.6729   36.2274   34.9184 C   0  0  0  0  0  0  0  0  0  0  0  0
   13.8221   37.0457   35.5783 N   0  0  0  0  0  0  0  0  0  0  0  0
   16.1637   34.7596   33.1549 C   0  0  0  0  0  0  0  0  0  0  0  0
   15.6514   35.3493   35.4133 C   0  0  0  0  0  0  0  0  0  0  0  0
   16.3791   34.6312   34.5044 N   0  0  0  0  0  0  0  0  0  0  0  0
   15.9001   35.1935   36.8091 N   0  0  0  0  0  0  0  0  0  0  0  0
    9.7634   45.0049   32.1622 H   0  0  0  0  0  0  0  0  0  0  0  0
   10.8469   46.9548   33.0470 H   0  0  0  0  0  0  0  0  0  0  0  0
   11.8960   45.6761   32.9266 H   0  0  0  0  0  0  0  0  0  0  0  0
    8.8865   45.8586   35.0153 H   0  0  0  0  0  0  0  0  0  0  0  0
    7.8677   44.8929   33.8964 H   0  0  0  0  0  0  0  0  0  0  0  0
    8.4893   49.4467   32.2322 H   0  0  0  0  0  0  0  0  0  0  0  0
    6.9690   49.4068   33.1748 H   0  0  0  0  0  0  0  0  0  0  0  0
    9.6265   51.4562   32.4762 H   0  0  0  0  0  0  0  0  0  0  0  0
    8.5374   51.7887   37.3009 H   0  0  0  0  0  0  0  0  0  0  0  0
   10.5059   53.3115   33.8220 H   0  0  0  0  0  0  0  0  0  0  0  0
    9.9750   53.4708   36.2322 H   0  0  0  0  0  0  0  0  0  0  0  0
   11.4002   41.5453   31.4742 H   0  0  0  0  0  0  0  0  0  0  0  0
    9.8313   40.7397   31.7557 H   0  0  0  0  0  0  0  0  0  0  0  0
   11.6991   39.5089   30.3487 H   0  0  0  0  0  0  0  0  0  0  0  0
   10.1132   38.2590   32.6664 H   0  0  0  0  0  0  0  0  0  0  0  0
   13.6801   37.4625   31.2265 H   0  0  0  0  0  0  0  0  0  0  0  0
    8.8953   38.6909   30.8891 H   0  0  0  0  0  0  0  0  0  0  0  0
   11.2830   36.3060   32.4929 H   0  0  0  0  0  0  0  0  0  0  0  0
   11.8859   36.9588   29.7593 H   0  0  0  0  0  0  0  0  0  0  0  0
   12.3360   38.3600   34.7441 H   0  0  0  0  0  0  0  0  0  0  0  0
   16.7573   34.1793   32.4621 H   0  0  0  0  0  0  0  0  0  0  0  0
   16.6362   34.5318   37.1416 H   0  0  0  0  0  0  0  0  0  0  0  0
   15.3528   35.7357   37.5140 H   0  0  0  0  0  0  0  0  0  0  0  0
  1  2  2  0
  1  3  1  0
  3  4  1  0
  4  5  1  0
  6  1  1  0
  7  6  1  0
  6  8  1  0
  8  9  1  0
  9 10  1  0
  9 11  2  0
 10 12  1  0
 12 13  1  0
 13 14  2  0
 15 13  1  0
 14 16  1  0
 14 17  1  0
 18 15  2  0
 16 19  1  0
 16 20  2  0
 17 21  2  0
 21 18  1  0
  4 22  2  0
  4 23  1  0
 24 23  1  0
 24 25  1  0
 25 26  1  0
 25 27  1  0
 26 28  1  0
 27 29  1  0
 27 30  1  0
 30 28  1  0
 28 31  1  0
 30 32  1  0
 33 31  1  0
 34 31  1  0
 35 33  2  0
 33 36  1  0
 37 34  2  0
 38 35  1  0
 36 39  2  0
 36 37  1  0
 40 38  2  0
 40 39  1  0
 39 41  1  0
  6 42  1  6
  7 43  1  0
  7 44  1  0
  8 45  1  0
  8 46  1  0
 12 47  1  0
 12 48  1  0
 15 49  1  0
 17 50  1  0
 18 51  1  0
 21 52  1  0
 24 53  1  0
 24 54  1  0
 25 55  1  0
 27 56  1  0
 28 57  1  0
 29 58  1  0
 30 59  1  0
 32 60  1  0
 34 61  1  0
 38 62  1  0
 41 63  1  0
 41 64  1  0
M  CHG  3   5  -1  16   1  19  -1
M  END
>  <EmbedRMS>  (180) 
0.08840597734919861

$$$$

     RDKit          3D

 64 67  0  0  0  0  0  0  0  0999 V2000
   10.2823   43.7742   33.8115 C   0  0  0  0  0  0  0  0  0  0  0  0
   11.4040   43.5907   34.3696 O   0  0  0  0  0  0  0  0  0  0  0  0
    9.3646   42.7325   33.7047 O   0  0  0  0  0  0  0  0  0  0  0  0
    9.8851   41.2343   34.2839 P   0  0  0  0  0  5  0  0  0  0  0  0
   10.3722   41.4652   35.8717 O   0  0  0  0  0  1  0  0  0  0  0  0
    9.9625   45.1092   33.2339 C   0  0  2  0  0  0  0  0  0  0  0  0
   11.0691   46.0354   33.4818 N   0  0  0  0  0  0  0  0  0  0  0  0
    8.6399   45.6662   33.8001 C   0  0  0  0  0  0  0  0  0  0  0  0
    8.6804   45.8745   35.2852 C   0  0  0  0  0  0  0  0  0  0  0  0
    7.9164   45.0474   36.1161 O   0  0  0  0  0  0  0  0  0  0  0  0
    9.3838   46.8026   35.7690 O   0  0  0  0  0  0  0  0  0  0  0  0
    7.9200   45.1415   37.5393 C   0  0  0  0  0  0  0  0  0  0  0  0
    9.1339   44.4516   38.1113 C   0  0  0  0  0  0  0  0  0  0  0  0
    9.1683   43.0504   38.3410 C   0  0  0  0  0  0  0  0  0  0  0  0
   10.2573   45.2303   38.4432 C   0  0  0  0  0  0  0  0  0  0  0  0
    8.0640   42.1954   37.9912 N   0  0  0  0  0  4  0  0  0  0  0  0
   10.3125   42.4822   38.9316 C   0  0  0  0  0  0  0  0  0  0  0  0
   11.3897   44.6431   39.0084 C   0  0  0  0  0  0  0  0  0  0  0  0
    7.3730   42.3870   36.8175 O   0  0  0  0  0  1  0  0  0  0  0  0
    7.8353   41.1654   38.6586 O   0  0  0  0  0  0  0  0  0  0  0  0
   11.4153   43.2726   39.2569 C   0  0  0  0  0  0  0  0  0  0  0  0
    8.8079   40.1911   34.2096 O   0  0  0  0  0  0  0  0  0  0  0  0
   11.2364   40.7921   33.3670 O   0  0  0  0  0  0  0  0  0  0  0  0
   10.9143   40.6899   31.9946 C   0  0  0  0  0  0  0  0  0  0  0  0
   11.5266   39.3897   31.4370 C   0  0  0  0  0  0  0  0  0  0  0  0
   12.7503   39.0919   32.0840 O   0  0  0  0  0  0  0  0  0  0  0  0
   10.6120   38.1915   31.6451 C   0  0  0  0  0  0  0  0  0  0  0  0
   12.9428   37.6855   32.0296 C   0  0  0  0  0  0  0  0  0  0  0  0
    9.6068   38.0855   30.6602 O   0  0  0  0  0  0  0  0  0  0  0  0
   11.5844   37.0186   31.6880 C   0  0  0  0  0  0  0  0  0  0  0  0
   13.4898   37.2165   33.3250 N   0  0  0  0  0  0  0  0  0  0  0  0
   11.6202   36.3062   30.4693 O   0  0  0  0  0  0  0  0  0  0  0  0
   14.4758   36.3264   33.5739 C   0  0  0  0  0  0  0  0  0  0  0  0
   13.1175   37.6309   34.5700 C   0  0  0  0  0  0  0  0  0  0  0  0
   15.2064   35.6140   32.6746 N   0  0  0  0  0  0  0  0  0  0  0  0
   14.6730   36.2268   34.9191 C   0  0  0  0  0  0  0  0  0  0  0  0
   13.8224   37.0451   35.5793 N   0  0  0  0  0  0  0  0  0  0  0  0
   16.1639   34.7596   33.1551 C   0  0  0  0  0  0  0  0  0  0  0  0
   15.6517   35.3489   35.4136 C   0  0  0  0  0  0  0  0  0  0  0  0
   16.3794   34.6310   34.5046 N   0  0  0  0  0  0  0  0  0  0  0  0
   15.9006   35.1931   36.8094 N   0  0  0  0  0  0  0  0  0  0  0  0
    9.8377   44.9818   32.1349 H   0  0  0  0  0  0  0  0  0  0  0  0
   10.8177   46.9672   33.0780 H   0  0  0  0  0  0  0  0  0  0  0  0
   11.9013   45.7108   32.9362 H   0  0  0  0  0  0  0  0  0  0  0  0
    7.8085   44.9717   33.5498 H   0  0  0  0  0  0  0  0  0  0  0  0
    8.4066   46.6354   33.3086 H   0  0  0  0  0  0  0  0  0  0  0  0
    6.9973   44.6697   37.9365 H   0  0  0  0  0  0  0  0  0  0  0  0
    7.8758   46.2080   37.8531 H   0  0  0  0  0  0  0  0  0  0  0  0
   10.2535   46.3002   38.2770 H   0  0  0  0  0  0  0  0  0  0  0  0
   10.3598   41.4169   39.1194 H   0  0  0  0  0  0  0  0  0  0  0  0
   12.2465   45.2542   39.2615 H   0  0  0  0  0  0  0  0  0  0  0  0
   12.2933   42.8200   39.6994 H   0  0  0  0  0  0  0  0  0  0  0  0
    9.8240   40.7183   31.7582 H   0  0  0  0  0  0  0  0  0  0  0  0
   11.3803   41.5526   31.4721 H   0  0  0  0  0  0  0  0  0  0  0  0
   11.7318   39.5332   30.3516 H   0  0  0  0  0  0  0  0  0  0  0  0
   10.1213   38.2683   32.6412 H   0  0  0  0  0  0  0  0  0  0  0  0
   13.6881   37.4712   31.2319 H   0  0  0  0  0  0  0  0  0  0  0  0
   10.0254   38.1747   29.7655 H   0  0  0  0  0  0  0  0  0  0  0  0
   11.2795   36.3124   32.4916 H   0  0  0  0  0  0  0  0  0  0  0  0
   11.9873   36.9098   29.7715 H   0  0  0  0  0  0  0  0  0  0  0  0
   12.3366   38.3598   34.7455 H   0  0  0  0  0  0  0  0  0  0  0  0
   16.7576   34.1795   32.4622 H   0  0  0  0  0  0  0  0  0  0  0  0
   16.6368   34.5316   37.1418 H   0  0  0  0  0  0  0  0  0  0  0  0
   15.3532   35.7352   37.5143 H   0  0  0  0  0  0  0  0  0  0  0  0
  1  2  2  0
  1  3  1  0
  3  4  1  0
  4  5  1  0
  6  1  1  0
  7  6  1  0
  6  8  1  0
  8  9  1  0
  9 10  1  0
  9 11  2  0
 10 12  1  0
 12 13  1  0
 13 14  2  0
 15 13  1  0
 14 16  1  0
 14 17  1  0
 18 15  2  0
 16 19  1  0
 16 20  2  0
 17 21  2  0
 21 18  1  0
  4 22  2  0
  4 23  1  0
 24 23  1  0
 24 25  1  0
 25 26  1  0
 25 27  1  0
 26 28  1  0
 27 29  1  0
 27 30  1  0
 30 28  1  0
 28 31  1  0
 30 32  1  0
 33 31  1  0
 34 31  1  0
 35 33  2  0
 33 36  1  0
 37 34  2  0
 38 35  1  0
 36 39  2  0
 36 37  1  0
 40 38  2  0
 40 39  1  0
 39 41  1  0
  6 42  1  6
  7 43  1  0
  7 44  1  0
  8 45  1  0
  8 46  1  0
 12 47  1  0
 12 48  1  0
 15 49  1  0
 17 50  1  0
 18 51  1  0
 21 52  1  0
 24 53  1  0
 24 54  1  0
 25 55  1  0
 27 56  1  0
 28 57  1  0
 29 58  1  0
 30 59  1  0
 32 60  1  0
 34 61  1  0
 38 62  1  0
 41 63  1  0
 41 64  1  0
M  CHG  3   5  -1  16   1  19  -1
M  END
>  <EmbedRMS>  (181) 
0.08677527004702143

$$$$

     RDKit          3D

 64 67  0  0  0  0  0  0  0  0999 V2000
   10.2862   43.7710   33.8098 C   0  0  0  0  0  0  0  0  0  0  0  0
   11.4100   43.5817   34.3615 O   0  0  0  0  0  0  0  0  0  0  0  0
    9.3669   42.7308   33.7017 O   0  0  0  0  0  0  0  0  0  0  0  0
    9.8850   41.2328   34.2832 P   0  0  0  0  0  5  0  0  0  0  0  0
   10.3662   41.4673   35.8737 O   0  0  0  0  0  1  0  0  0  0  0  0
    9.9606   45.1126   33.2476 C   0  0  2  0  0  0  0  0  0  0  0  0
   11.0656   46.0480   33.4747 N   0  0  0  0  0  0  0  0  0  0  0  0
    8.6653   45.6569   33.8728 C   0  0  0  0  0  0  0  0  0  0  0  0
    8.2779   46.9656   33.2577 C   0  0  0  0  0  0  0  0  0  0  0  0
    8.7084   48.1589   33.8511 O   0  0  0  0  0  0  0  0  0  0  0  0
    7.5942   46.9810   32.1978 O   0  0  0  0  0  0  0  0  0  0  0  0
    8.4145   49.4524   33.3210 C   0  0  0  0  0  0  0  0  0  0  0  0
    7.0976   50.0172   33.8232 C   0  0  0  0  0  0  0  0  0  0  0  0
    6.7619   51.3830   33.6005 C   0  0  0  0  0  0  0  0  0  0  0  0
    6.1964   49.2070   34.5475 C   0  0  0  0  0  0  0  0  0  0  0  0
    7.6252   52.2738   32.8688 N   0  0  0  0  0  4  0  0  0  0  0  0
    5.5619   51.8923   34.1278 C   0  0  0  0  0  0  0  0  0  0  0  0
    5.0042   49.7321   35.0467 C   0  0  0  0  0  0  0  0  0  0  0  0
    7.6390   53.6165   33.1702 O   0  0  0  0  0  1  0  0  0  0  0  0
    8.2357   51.8828   31.8532 O   0  0  0  0  0  0  0  0  0  0  0  0
    4.6891   51.0719   34.8406 C   0  0  0  0  0  0  0  0  0  0  0  0
    8.8070   40.1904   34.2076 O   0  0  0  0  0  0  0  0  0  0  0  0
   11.2367   40.7900   33.3660 O   0  0  0  0  0  0  0  0  0  0  0  0
   10.9142   40.6849   31.9931 C   0  0  0  0  0  0  0  0  0  0  0  0
   11.5166   39.3773   31.4393 C   0  0  0  0  0  0  0  0  0  0  0  0
   12.7472   39.0854   32.0739 O   0  0  0  0  0  0  0  0  0  0  0  0
   10.6047   38.1867   31.6669 C   0  0  0  0  0  0  0  0  0  0  0  0
   12.9345   37.6791   32.0282 C   0  0  0  0  0  0  0  0  0  0  0  0
    9.6378   38.0917   30.6488 O   0  0  0  0  0  0  0  0  0  0  0  0
   11.5761   37.0129   31.7056 C   0  0  0  0  0  0  0  0  0  0  0  0
   13.4909   37.2177   33.3233 N   0  0  0  0  0  0  0  0  0  0  0  0
   11.6234   36.3371   30.4684 O   0  0  0  0  0  0  0  0  0  0  0  0
   14.4765   36.3272   33.5727 C   0  0  0  0  0  0  0  0  0  0  0  0
   13.1182   37.6315   34.5685 C   0  0  0  0  0  0  0  0  0  0  0  0
   15.2066   35.6137   32.6739 N   0  0  0  0  0  0  0  0  0  0  0  0
   14.6736   36.2276   34.9182 C   0  0  0  0  0  0  0  0  0  0  0  0
   13.8227   37.0457   35.5781 N   0  0  0  0  0  0  0  0  0  0  0  0
   16.1638   34.7593   33.1548 C   0  0  0  0  0  0  0  0  0  0  0  0
   15.6517   35.3492   35.4131 C   0  0  0  0  0  0  0  0  0  0  0  0
   16.3792   34.6309   34.5043 N   0  0  0  0  0  0  0  0  0  0  0  0
   15.9002   35.1934   36.8090 N   0  0  0  0  0  0  0  0  0  0  0  0
    9.8088   44.9958   32.1515 H   0  0  0  0  0  0  0  0  0  0  0  0
   11.9219   45.7018   32.9826 H   0  0  0  0  0  0  0  0  0  0  0  0
   11.2754   46.1188   34.4980 H   0  0  0  0  0  0  0  0  0  0  0  0
    8.7979   45.7923   34.9686 H   0  0  0  0  0  0  0  0  0  0  0  0
    7.8356   44.9322   33.7196 H   0  0  0  0  0  0  0  0  0  0  0  0
    9.2319   50.1342   33.6374 H   0  0  0  0  0  0  0  0  0  0  0  0
    8.4148   49.4125   32.2107 H   0  0  0  0  0  0  0  0  0  0  0  0
    6.4082   48.1668   34.7479 H   0  0  0  0  0  0  0  0  0  0  0  0
    5.2919   52.9291   33.9720 H   0  0  0  0  0  0  0  0  0  0  0  0
    4.3252   49.0981   35.6025 H   0  0  0  0  0  0  0  0  0  0  0  0
    3.7651   51.4765   35.2332 H   0  0  0  0  0  0  0  0  0  0  0  0
   11.3873   41.5415   31.4671 H   0  0  0  0  0  0  0  0  0  0  0  0
    9.8242   40.7213   31.7563 H   0  0  0  0  0  0  0  0  0  0  0  0
   11.6986   39.5012   30.3467 H   0  0  0  0  0  0  0  0  0  0  0  0
   10.1095   38.2770   32.6628 H   0  0  0  0  0  0  0  0  0  0  0  0
   13.6672   37.4545   31.2213 H   0  0  0  0  0  0  0  0  0  0  0  0
    8.9779   37.4156   30.9533 H   0  0  0  0  0  0  0  0  0  0  0  0
   11.2861   36.3041   32.5176 H   0  0  0  0  0  0  0  0  0  0  0  0
   10.8690   35.6918   30.4657 H   0  0  0  0  0  0  0  0  0  0  0  0
   12.3356   38.3587   34.7439 H   0  0  0  0  0  0  0  0  0  0  0  0
   16.7572   34.1786   32.4621 H   0  0  0  0  0  0  0  0  0  0  0  0
   15.3530   35.7358   37.5138 H   0  0  0  0  0  0  0  0  0  0  0  0
   16.6361   34.5315   37.1415 H   0  0  0  0  0  0  0  0  0  0  0  0
  1  2  2  0
  1  3  1  0
  3  4  1  0
  4  5  1  0
  6  1  1  0
  7  6  1  0
  6  8  1  0
  8  9  1  0
  9 10  1  0
  9 11  2  0
 10 12  1  0
 12 13  1  0
 13 14  2  0
 15 13  1  0
 14 16  1  0
 14 17  1  0
 18 15  2  0
 16 19  1  0
 16 20  2  0
 17 21  2  0
 21 18  1  0
  4 22  2  0
  4 23  1  0
 24 23  1  0
 24 25  1  0
 25 26  1  0
 25 27  1  0
 26 28  1  0
 27 29  1  0
 27 30  1  0
 30 28  1  0
 28 31  1  0
 30 32  1  0
 33 31  1  0
 34 31  1  0
 35 33  2  0
 33 36  1  0
 37 34  2  0
 38 35  1  0
 36 39  2  0
 36 37  1  0
 40 38  2  0
 40 39  1  0
 39 41  1  0
  6 42  1  6
  7 43  1  0
  7 44  1  0
  8 45  1  0
  8 46  1  0
 12 47  1  0
 12 48  1  0
 15 49  1  0
 17 50  1  0
 18 51  1  0
 21 52  1  0
 24 53  1  0
 24 54  1  0
 25 55  1  0
 27 56  1  0
 28 57  1  0
 29 58  1  0
 30 59  1  0
 32 60  1  0
 34 61  1  0
 38 62  1  0
 41 63  1  0
 41 64  1  0
M  CHG  3   5  -1  16   1  19  -1
M  END
>  <EmbedRMS>  (182) 
0.0895278474669005

$$$$

     RDKit          3D

 64 67  0  0  0  0  0  0  0  0999 V2000
   10.2777   43.7762   33.8102 C   0  0  0  0  0  0  0  0  0  0  0  0
   11.4037   43.5909   34.3598 O   0  0  0  0  0  0  0  0  0  0  0  0
    9.3630   42.7314   33.7032 O   0  0  0  0  0  0  0  0  0  0  0  0
    9.8866   41.2349   34.2846 P   0  0  0  0  0  5  0  0  0  0  0  0
   10.3665   41.4694   35.8752 O   0  0  0  0  0  1  0  0  0  0  0  0
    9.9571   45.1141   33.2371 C   0  0  2  0  0  0  0  0  0  0  0  0
   11.0770   46.0239   33.4855 N   0  0  0  0  0  0  0  0  0  0  0  0
    8.6513   45.6947   33.8278 C   0  0  0  0  0  0  0  0  0  0  0  0
    7.4155   44.9855   33.3555 C   0  0  0  0  0  0  0  0  0  0  0  0
    6.3623   44.7836   34.2538 O   0  0  0  0  0  0  0  0  0  0  0  0
    7.2969   44.6536   32.1437 O   0  0  0  0  0  0  0  0  0  0  0  0
    5.1089   44.2202   33.8725 C   0  0  0  0  0  0  0  0  0  0  0  0
    5.2338   42.7315   33.6474 C   0  0  0  0  0  0  0  0  0  0  0  0
    5.6791   41.8423   34.6646 C   0  0  0  0  0  0  0  0  0  0  0  0
    4.9203   42.2173   32.3754 C   0  0  0  0  0  0  0  0  0  0  0  0
    6.0457   42.2997   35.9799 N   0  0  0  0  0  4  0  0  0  0  0  0
    5.7905   40.4715   34.3715 C   0  0  0  0  0  0  0  0  0  0  0  0
    5.0431   40.8538   32.1071 C   0  0  0  0  0  0  0  0  0  0  0  0
    6.9968   41.6166   36.7027 O   0  0  0  0  0  1  0  0  0  0  0  0
    5.4090   43.2128   36.5431 O   0  0  0  0  0  0  0  0  0  0  0  0
    5.4765   39.9826   33.1032 C   0  0  0  0  0  0  0  0  0  0  0  0
    8.8159   40.1866   34.2074 O   0  0  0  0  0  0  0  0  0  0  0  0
   11.2386   40.7952   33.3676 O   0  0  0  0  0  0  0  0  0  0  0  0
   10.9145   40.6905   31.9954 C   0  0  0  0  0  0  0  0  0  0  0  0
   11.5264   39.3901   31.4378 C   0  0  0  0  0  0  0  0  0  0  0  0
   12.7501   39.0919   32.0844 O   0  0  0  0  0  0  0  0  0  0  0  0
   10.6116   38.1918   31.6455 C   0  0  0  0  0  0  0  0  0  0  0  0
   12.9425   37.6856   32.0297 C   0  0  0  0  0  0  0  0  0  0  0  0
    9.6064   38.0860   30.6607 O   0  0  0  0  0  0  0  0  0  0  0  0
   11.5841   37.0188   31.6881 C   0  0  0  0  0  0  0  0  0  0  0  0
   13.4897   37.2164   33.3250 N   0  0  0  0  0  0  0  0  0  0  0  0
   11.6198   36.3065   30.4694 O   0  0  0  0  0  0  0  0  0  0  0  0
   14.4758   36.3264   33.5738 C   0  0  0  0  0  0  0  0  0  0  0  0
   13.1174   37.6308   34.5700 C   0  0  0  0  0  0  0  0  0  0  0  0
   15.2064   35.6140   32.6746 N   0  0  0  0  0  0  0  0  0  0  0  0
   14.6731   36.2268   34.9190 C   0  0  0  0  0  0  0  0  0  0  0  0
   13.8224   37.0450   35.5792 N   0  0  0  0  0  0  0  0  0  0  0  0
   16.1639   34.7596   33.1550 C   0  0  0  0  0  0  0  0  0  0  0  0
   15.6517   35.3489   35.4136 C   0  0  0  0  0  0  0  0  0  0  0  0
   16.3795   34.6310   34.5045 N   0  0  0  0  0  0  0  0  0  0  0  0
   15.9006   35.1931   36.8093 N   0  0  0  0  0  0  0  0  0  0  0  0
    9.8491   44.9955   32.1362 H   0  0  0  0  0  0  0  0  0  0  0  0
   10.9207   46.9037   32.9414 H   0  0  0  0  0  0  0  0  0  0  0  0
   11.0989   46.2859   34.4991 H   0  0  0  0  0  0  0  0  0  0  0  0
    8.6944   45.6601   34.9387 H   0  0  0  0  0  0  0  0  0  0  0  0
    8.5554   46.7612   33.5312 H   0  0  0  0  0  0  0  0  0  0  0  0
    4.3611   44.4123   34.6684 H   0  0  0  0  0  0  0  0  0  0  0  0
    4.7304   44.7440   32.9670 H   0  0  0  0  0  0  0  0  0  0  0  0
    4.5852   42.8744   31.5825 H   0  0  0  0  0  0  0  0  0  0  0  0
    6.1200   39.7746   35.1316 H   0  0  0  0  0  0  0  0  0  0  0  0
    4.8017   40.4723   31.1233 H   0  0  0  0  0  0  0  0  0  0  0  0
    5.5704   38.9250   32.8929 H   0  0  0  0  0  0  0  0  0  0  0  0
    9.8238   40.7186   31.7600 H   0  0  0  0  0  0  0  0  0  0  0  0
   11.3793   41.5528   31.4712 H   0  0  0  0  0  0  0  0  0  0  0  0
   11.7314   39.5336   30.3524 H   0  0  0  0  0  0  0  0  0  0  0  0
   10.1209   38.2685   32.6416 H   0  0  0  0  0  0  0  0  0  0  0  0
   13.6878   37.4714   31.2319 H   0  0  0  0  0  0  0  0  0  0  0  0
   10.0249   38.1757   29.7660 H   0  0  0  0  0  0  0  0  0  0  0  0
   11.2792   36.3126   32.4917 H   0  0  0  0  0  0  0  0  0  0  0  0
   11.9865   36.9104   29.7716 H   0  0  0  0  0  0  0  0  0  0  0  0
   12.3364   38.3595   34.7455 H   0  0  0  0  0  0  0  0  0  0  0  0
   16.7576   34.1795   32.4621 H   0  0  0  0  0  0  0  0  0  0  0  0
   16.6368   34.5316   37.1417 H   0  0  0  0  0  0  0  0  0  0  0  0
   15.3532   35.7351   37.5143 H   0  0  0  0  0  0  0  0  0  0  0  0
  1  2  2  0
  1  3  1  0
  3  4  1  0
  4  5  1  0
  6  1  1  0
  7  6  1  0
  6  8  1  0
  8  9  1  0
  9 10  1  0
  9 11  2  0
 10 12  1  0
 12 13  1  0
 13 14  2  0
 15 13  1  0
 14 16  1  0
 14 17  1  0
 18 15  2  0
 16 19  1  0
 16 20  2  0
 17 21  2  0
 21 18  1  0
  4 22  2  0
  4 23  1  0
 24 23  1  0
 24 25  1  0
 25 26  1  0
 25 27  1  0
 26 28  1  0
 27 29  1  0
 27 30  1  0
 30 28  1  0
 28 31  1  0
 30 32  1  0
 33 31  1  0
 34 31  1  0
 35 33  2  0
 33 36  1  0
 37 34  2  0
 38 35  1  0
 36 39  2  0
 36 37  1  0
 40 38  2  0
 40 39  1  0
 39 41  1  0
  6 42  1  6
  7 43  1  0
  7 44  1  0
  8 45  1  0
  8 46  1  0
 12 47  1  0
 12 48  1  0
 15 49  1  0
 17 50  1  0
 18 51  1  0
 21 52  1  0
 24 53  1  0
 24 54  1  0
 25 55  1  0
 27 56  1  0
 28 57  1  0
 29 58  1  0
 30 59  1  0
 32 60  1  0
 34 61  1  0
 38 62  1  0
 41 63  1  0
 41 64  1  0
M  CHG  3   5  -1  16   1  19  -1
M  END
>  <EmbedRMS>  (183) 
0.0861600481996666

$$$$

     RDKit          3D

 64 67  0  0  0  0  0  0  0  0999 V2000
   10.2819   43.7759   33.8091 C   0  0  0  0  0  0  0  0  0  0  0  0
   11.4049   43.5927   34.3650 O   0  0  0  0  0  0  0  0  0  0  0  0
    9.3747   42.7268   33.6896 O   0  0  0  0  0  0  0  0  0  0  0  0
    9.8870   41.2329   34.2834 P   0  0  0  0  0  5  0  0  0  0  0  0
   10.3635   41.4720   35.8745 O   0  0  0  0  0  1  0  0  0  0  0  0
    9.9388   45.1276   33.2739 C   0  0  2  0  0  0  0  0  0  0  0  0
   11.0822   46.0225   33.4600 N   0  0  0  0  0  0  0  0  0  0  0  0
    8.7087   45.7149   34.0009 C   0  0  0  0  0  0  0  0  0  0  0  0
    7.4475   44.9798   33.6626 C   0  0  0  0  0  0  0  0  0  0  0  0
    7.0395   43.9166   34.4716 O   0  0  0  0  0  0  0  0  0  0  0  0
    6.7961   45.2903   32.6281 O   0  0  0  0  0  0  0  0  0  0  0  0
    5.9473   43.0623   34.1440 C   0  0  0  0  0  0  0  0  0  0  0  0
    5.9393   41.8427   35.0379 C   0  0  0  0  0  0  0  0  0  0  0  0
    5.4137   40.6008   34.5928 C   0  0  0  0  0  0  0  0  0  0  0  0
    6.4684   41.9326   36.3411 C   0  0  0  0  0  0  0  0  0  0  0  0
    4.7738   40.4684   33.3115 N   0  0  0  0  0  4  0  0  0  0  0  0
    5.5122   39.4733   35.4282 C   0  0  0  0  0  0  0  0  0  0  0  0
    6.5413   40.8054   37.1603 C   0  0  0  0  0  0  0  0  0  0  0  0
    3.9085   41.4395   32.8628 O   0  0  0  0  0  1  0  0  0  0  0  0
    4.8521   39.3943   32.6799 O   0  0  0  0  0  0  0  0  0  0  0  0
    6.0752   39.5759   36.7005 C   0  0  0  0  0  0  0  0  0  0  0  0
    8.8086   40.1909   34.2073 O   0  0  0  0  0  0  0  0  0  0  0  0
   11.2384   40.7871   33.3697 O   0  0  0  0  0  0  0  0  0  0  0  0
   10.9169   40.6890   31.9965 C   0  0  0  0  0  0  0  0  0  0  0  0
   11.5273   39.3894   31.4370 C   0  0  0  0  0  0  0  0  0  0  0  0
   12.7512   39.0911   32.0831 O   0  0  0  0  0  0  0  0  0  0  0  0
   10.6122   38.1915   31.6453 C   0  0  0  0  0  0  0  0  0  0  0  0
   12.9429   37.6848   32.0293 C   0  0  0  0  0  0  0  0  0  0  0  0
    9.6067   38.0859   30.6606 O   0  0  0  0  0  0  0  0  0  0  0  0
   11.5843   37.0184   31.6880 C   0  0  0  0  0  0  0  0  0  0  0  0
   13.4898   37.2162   33.3249 N   0  0  0  0  0  0  0  0  0  0  0  0
   11.6198   36.3061   30.4693 O   0  0  0  0  0  0  0  0  0  0  0  0
   14.4758   36.3263   33.5739 C   0  0  0  0  0  0  0  0  0  0  0  0
   13.1174   37.6307   34.5698 C   0  0  0  0  0  0  0  0  0  0  0  0
   15.2065   35.6138   32.6746 N   0  0  0  0  0  0  0  0  0  0  0  0
   14.6731   36.2267   34.9191 C   0  0  0  0  0  0  0  0  0  0  0  0
   13.8223   37.0450   35.5792 N   0  0  0  0  0  0  0  0  0  0  0  0
   16.1640   34.7596   33.1551 C   0  0  0  0  0  0  0  0  0  0  0  0
   15.6517   35.3489   35.4136 C   0  0  0  0  0  0  0  0  0  0  0  0
   16.3795   34.6310   34.5046 N   0  0  0  0  0  0  0  0  0  0  0  0
   15.9006   35.1931   36.8094 N   0  0  0  0  0  0  0  0  0  0  0  0
    9.7185   45.0372   32.1857 H   0  0  0  0  0  0  0  0  0  0  0  0
   10.8381   46.9610   33.0674 H   0  0  0  0  0  0  0  0  0  0  0  0
   11.8731   45.6755   32.8684 H   0  0  0  0  0  0  0  0  0  0  0  0
    8.8687   45.6883   35.1012 H   0  0  0  0  0  0  0  0  0  0  0  0
    8.5758   46.7804   33.7123 H   0  0  0  0  0  0  0  0  0  0  0  0
    4.9925   43.6171   34.2636 H   0  0  0  0  0  0  0  0  0  0  0  0
    6.0610   42.7466   33.0845 H   0  0  0  0  0  0  0  0  0  0  0  0
    6.8444   42.8731   36.7235 H   0  0  0  0  0  0  0  0  0  0  0  0
    5.1292   38.5148   35.1014 H   0  0  0  0  0  0  0  0  0  0  0  0
    6.9653   40.8851   38.1530 H   0  0  0  0  0  0  0  0  0  0  0  0
    6.1368   38.7024   37.3367 H   0  0  0  0  0  0  0  0  0  0  0  0
   11.3848   41.5521   31.4764 H   0  0  0  0  0  0  0  0  0  0  0  0
    9.8268   40.7192   31.7586 H   0  0  0  0  0  0  0  0  0  0  0  0
   11.7317   39.5337   30.3516 H   0  0  0  0  0  0  0  0  0  0  0  0
   10.1215   38.2684   32.6414 H   0  0  0  0  0  0  0  0  0  0  0  0
   13.6881   37.4698   31.2318 H   0  0  0  0  0  0  0  0  0  0  0  0
   10.0252   38.1752   29.7658 H   0  0  0  0  0  0  0  0  0  0  0  0
   11.2793   36.3122   32.4916 H   0  0  0  0  0  0  0  0  0  0  0  0
   11.9866   36.9098   29.7714 H   0  0  0  0  0  0  0  0  0  0  0  0
   12.3363   38.3594   34.7452 H   0  0  0  0  0  0  0  0  0  0  0  0
   16.7577   34.1794   32.4623 H   0  0  0  0  0  0  0  0  0  0  0  0
   15.3532   35.7351   37.5144 H   0  0  0  0  0  0  0  0  0  0  0  0
   16.6368   34.5316   37.1418 H   0  0  0  0  0  0  0  0  0  0  0  0
  1  2  2  0
  1  3  1  0
  3  4  1  0
  4  5  1  0
  6  1  1  0
  7  6  1  0
  6  8  1  0
  8  9  1  0
  9 10  1  0
  9 11  2  0
 10 12  1  0
 12 13  1  0
 13 14  2  0
 15 13  1  0
 14 16  1  0
 14 17  1  0
 18 15  2  0
 16 19  1  0
 16 20  2  0
 17 21  2  0
 21 18  1  0
  4 22  2  0
  4 23  1  0
 24 23  1  0
 24 25  1  0
 25 26  1  0
 25 27  1  0
 26 28  1  0
 27 29  1  0
 27 30  1  0
 30 28  1  0
 28 31  1  0
 30 32  1  0
 33 31  1  0
 34 31  1  0
 35 33  2  0
 33 36  1  0
 37 34  2  0
 38 35  1  0
 36 39  2  0
 36 37  1  0
 40 38  2  0
 40 39  1  0
 39 41  1  0
  6 42  1  6
  7 43  1  0
  7 44  1  0
  8 45  1  0
  8 46  1  0
 12 47  1  0
 12 48  1  0
 15 49  1  0
 17 50  1  0
 18 51  1  0
 21 52  1  0
 24 53  1  0
 24 54  1  0
 25 55  1  0
 27 56  1  0
 28 57  1  0
 29 58  1  0
 30 59  1  0
 32 60  1  0
 34 61  1  0
 38 62  1  0
 41 63  1  0
 41 64  1  0
M  CHG  3   5  -1  16   1  19  -1
M  END
>  <EmbedRMS>  (184) 
0.08816407536082184

$$$$

     RDKit          3D

 64 67  0  0  0  0  0  0  0  0999 V2000
   10.2901   43.7674   33.8041 C   0  0  0  0  0  0  0  0  0  0  0  0
   11.4134   43.5784   34.3565 O   0  0  0  0  0  0  0  0  0  0  0  0
    9.3679   42.7298   33.6997 O   0  0  0  0  0  0  0  0  0  0  0  0
    9.8838   41.2328   34.2849 P   0  0  0  0  0  5  0  0  0  0  0  0
   10.3639   41.4697   35.8754 O   0  0  0  0  0  1  0  0  0  0  0  0
    9.9621   45.1127   33.2507 C   0  0  2  0  0  0  0  0  0  0  0  0
   11.0605   46.0549   33.4788 N   0  0  0  0  0  0  0  0  0  0  0  0
    8.6446   45.6653   33.8287 C   0  0  0  0  0  0  0  0  0  0  0  0
    8.6810   45.8158   35.3217 C   0  0  0  0  0  0  0  0  0  0  0  0
    8.6368   44.6725   36.1270 O   0  0  0  0  0  0  0  0  0  0  0  0
    8.7777   46.9638   35.8345 O   0  0  0  0  0  0  0  0  0  0  0  0
    8.5988   44.7084   37.5512 C   0  0  0  0  0  0  0  0  0  0  0  0
    7.2146   45.0705   38.0316 C   0  0  0  0  0  0  0  0  0  0  0  0
    6.1537   44.1241   38.0716 C   0  0  0  0  0  0  0  0  0  0  0  0
    6.9770   46.3881   38.4632 C   0  0  0  0  0  0  0  0  0  0  0  0
    6.3218   42.7632   37.6312 N   0  0  0  0  0  4  0  0  0  0  0  0
    4.9028   44.5225   38.5766 C   0  0  0  0  0  0  0  0  0  0  0  0
    5.7232   46.7649   38.9451 C   0  0  0  0  0  0  0  0  0  0  0  0
    5.5646   41.7617   38.1946 O   0  0  0  0  0  1  0  0  0  0  0  0
    7.0202   42.4944   36.6327 O   0  0  0  0  0  0  0  0  0  0  0  0
    4.6895   45.8330   39.0059 C   0  0  0  0  0  0  0  0  0  0  0  0
    8.8057   40.1908   34.2092 O   0  0  0  0  0  0  0  0  0  0  0  0
   11.2360   40.7881   33.3696 O   0  0  0  0  0  0  0  0  0  0  0  0
   10.9158   40.6886   31.9960 C   0  0  0  0  0  0  0  0  0  0  0  0
   11.5250   39.3873   31.4367 C   0  0  0  0  0  0  0  0  0  0  0  0
   12.7486   39.0879   32.0803 O   0  0  0  0  0  0  0  0  0  0  0  0
   10.6100   38.1909   31.6471 C   0  0  0  0  0  0  0  0  0  0  0  0
   12.9348   37.6808   32.0292 C   0  0  0  0  0  0  0  0  0  0  0  0
    9.6126   38.0874   30.6546 O   0  0  0  0  0  0  0  0  0  0  0  0
   11.5767   37.0133   31.7025 C   0  0  0  0  0  0  0  0  0  0  0  0
   13.4901   37.2165   33.3236 N   0  0  0  0  0  0  0  0  0  0  0  0
   11.6321   36.3231   30.4741 O   0  0  0  0  0  0  0  0  0  0  0  0
   14.4762   36.3266   33.5727 C   0  0  0  0  0  0  0  0  0  0  0  0
   13.1179   37.6307   34.5689 C   0  0  0  0  0  0  0  0  0  0  0  0
   15.2065   35.6135   32.6738 N   0  0  0  0  0  0  0  0  0  0  0  0
   14.6736   36.2272   34.9182 C   0  0  0  0  0  0  0  0  0  0  0  0
   13.8228   37.0453   35.5783 N   0  0  0  0  0  0  0  0  0  0  0  0
   16.1640   34.7593   33.1547 C   0  0  0  0  0  0  0  0  0  0  0  0
   15.6518   35.3491   35.4131 C   0  0  0  0  0  0  0  0  0  0  0  0
   16.3795   34.6309   34.5042 N   0  0  0  0  0  0  0  0  0  0  0  0
   15.9004   35.1933   36.8089 N   0  0  0  0  0  0  0  0  0  0  0  0
    9.8241   44.9985   32.1530 H   0  0  0  0  0  0  0  0  0  0  0  0
   11.2954   46.1040   34.4976 H   0  0  0  0  0  0  0  0  0  0  0  0
   11.9101   45.7248   32.9646 H   0  0  0  0  0  0  0  0  0  0  0  0
    8.4270   46.6500   33.3599 H   0  0  0  0  0  0  0  0  0  0  0  0
    7.8068   44.9857   33.5608 H   0  0  0  0  0  0  0  0  0  0  0  0
    9.3640   45.4194   37.9340 H   0  0  0  0  0  0  0  0  0  0  0  0
    8.8807   43.7101   37.9462 H   0  0  0  0  0  0  0  0  0  0  0  0
    7.7686   47.1267   38.4370 H   0  0  0  0  0  0  0  0  0  0  0  0
    4.0813   43.8188   38.6222 H   0  0  0  0  0  0  0  0  0  0  0  0
    5.5546   47.7812   39.2774 H   0  0  0  0  0  0  0  0  0  0  0  0
    3.7187   46.1270   39.3837 H   0  0  0  0  0  0  0  0  0  0  0  0
   11.3851   41.5507   31.4755 H   0  0  0  0  0  0  0  0  0  0  0  0
    9.8260   40.7205   31.7580 H   0  0  0  0  0  0  0  0  0  0  0  0
   11.7270   39.5292   30.3504 H   0  0  0  0  0  0  0  0  0  0  0  0
   10.1121   38.2729   32.6390 H   0  0  0  0  0  0  0  0  0  0  0  0
   13.6685   37.4591   31.2224 H   0  0  0  0  0  0  0  0  0  0  0  0
   10.0514   38.1111   29.7648 H   0  0  0  0  0  0  0  0  0  0  0  0
   11.2802   36.3128   32.5195 H   0  0  0  0  0  0  0  0  0  0  0  0
   10.8625   35.6960   30.4645 H   0  0  0  0  0  0  0  0  0  0  0  0
   12.3356   38.3581   34.7445 H   0  0  0  0  0  0  0  0  0  0  0  0
   16.7574   34.1787   32.4619 H   0  0  0  0  0  0  0  0  0  0  0  0
   15.3531   35.7355   37.5138 H   0  0  0  0  0  0  0  0  0  0  0  0
   16.6364   34.5315   37.1415 H   0  0  0  0  0  0  0  0  0  0  0  0
  1  2  2  0
  1  3  1  0
  3  4  1  0
  4  5  1  0
  6  1  1  0
  7  6  1  0
  6  8  1  0
  8  9  1  0
  9 10  1  0
  9 11  2  0
 10 12  1  0
 12 13  1  0
 13 14  2  0
 15 13  1  0
 14 16  1  0
 14 17  1  0
 18 15  2  0
 16 19  1  0
 16 20  2  0
 17 21  2  0
 21 18  1  0
  4 22  2  0
  4 23  1  0
 24 23  1  0
 24 25  1  0
 25 26  1  0
 25 27  1  0
 26 28  1  0
 27 29  1  0
 27 30  1  0
 30 28  1  0
 28 31  1  0
 30 32  1  0
 33 31  1  0
 34 31  1  0
 35 33  2  0
 33 36  1  0
 37 34  2  0
 38 35  1  0
 36 39  2  0
 36 37  1  0
 40 38  2  0
 40 39  1  0
 39 41  1  0
  6 42  1  6
  7 43  1  0
  7 44  1  0
  8 45  1  0
  8 46  1  0
 12 47  1  0
 12 48  1  0
 15 49  1  0
 17 50  1  0
 18 51  1  0
 21 52  1  0
 24 53  1  0
 24 54  1  0
 25 55  1  0
 27 56  1  0
 28 57  1  0
 29 58  1  0
 30 59  1  0
 32 60  1  0
 34 61  1  0
 38 62  1  0
 41 63  1  0
 41 64  1  0
M  CHG  3   5  -1  16   1  19  -1
M  END
>  <EmbedRMS>  (185) 
0.08886003732651371

$$$$

     RDKit          3D

 64 67  0  0  0  0  0  0  0  0999 V2000
   10.2870   43.7706   33.8007 C   0  0  0  0  0  0  0  0  0  0  0  0
   11.4095   43.5864   34.3567 O   0  0  0  0  0  0  0  0  0  0  0  0
    9.3673   42.7305   33.6982 O   0  0  0  0  0  0  0  0  0  0  0  0
    9.8853   41.2345   34.2848 P   0  0  0  0  0  5  0  0  0  0  0  0
   10.3647   41.4712   35.8752 O   0  0  0  0  0  1  0  0  0  0  0  0
    9.9516   45.1164   33.2557 C   0  0  2  0  0  0  0  0  0  0  0  0
   11.0715   46.0326   33.4801 N   0  0  0  0  0  0  0  0  0  0  0  0
    8.6616   45.6663   33.9005 C   0  0  0  0  0  0  0  0  0  0  0  0
    8.7693   45.7439   35.3941 C   0  0  0  0  0  0  0  0  0  0  0  0
    9.5375   46.7561   35.9784 O   0  0  0  0  0  0  0  0  0  0  0  0
    8.2162   44.8625   36.1072 O   0  0  0  0  0  0  0  0  0  0  0  0
    9.9680   46.7137   37.3365 C   0  0  0  0  0  0  0  0  0  0  0  0
   11.0405   45.6610   37.4974 C   0  0  0  0  0  0  0  0  0  0  0  0
   10.8209   44.4386   38.1826 C   0  0  0  0  0  0  0  0  0  0  0  0
   12.2622   45.8622   36.8305 C   0  0  0  0  0  0  0  0  0  0  0  0
    9.6119   44.1914   38.9141 N   0  0  0  0  0  4  0  0  0  0  0  0
   11.8161   43.4463   38.1568 C   0  0  0  0  0  0  0  0  0  0  0  0
   13.2462   44.8724   36.8305 C   0  0  0  0  0  0  0  0  0  0  0  0
    9.2174   45.0673   39.8987 O   0  0  0  0  0  1  0  0  0  0  0  0
    9.0622   43.0727   38.8461 O   0  0  0  0  0  0  0  0  0  0  0  0
   13.0205   43.6635   37.4863 C   0  0  0  0  0  0  0  0  0  0  0  0
    8.8081   40.1913   34.2088 O   0  0  0  0  0  0  0  0  0  0  0  0
   11.2381   40.7903   33.3704 O   0  0  0  0  0  0  0  0  0  0  0  0
   10.9191   40.6906   31.9967 C   0  0  0  0  0  0  0  0  0  0  0  0
   11.5175   39.3825   31.4414 C   0  0  0  0  0  0  0  0  0  0  0  0
   12.7496   39.0893   32.0756 O   0  0  0  0  0  0  0  0  0  0  0  0
   10.6036   38.1900   31.6661 C   0  0  0  0  0  0  0  0  0  0  0  0
   12.9401   37.6834   32.0277 C   0  0  0  0  0  0  0  0  0  0  0  0
    9.6377   38.0786   30.6475 O   0  0  0  0  0  0  0  0  0  0  0  0
   11.5804   37.0204   31.6938 C   0  0  0  0  0  0  0  0  0  0  0  0
   13.4902   37.2178   33.3238 N   0  0  0  0  0  0  0  0  0  0  0  0
   11.6117   36.3194   30.4681 O   0  0  0  0  0  0  0  0  0  0  0  0
   14.4758   36.3272   33.5731 C   0  0  0  0  0  0  0  0  0  0  0  0
   13.1176   37.6319   34.5688 C   0  0  0  0  0  0  0  0  0  0  0  0
   15.2063   35.6142   32.6742 N   0  0  0  0  0  0  0  0  0  0  0  0
   14.6729   36.2275   34.9185 C   0  0  0  0  0  0  0  0  0  0  0  0
   13.8222   37.0459   35.5784 N   0  0  0  0  0  0  0  0  0  0  0  0
   16.1636   34.7597   33.1549 C   0  0  0  0  0  0  0  0  0  0  0  0
   15.6514   35.3493   35.4133 C   0  0  0  0  0  0  0  0  0  0  0  0
   16.3791   34.6312   34.5044 N   0  0  0  0  0  0  0  0  0  0  0  0
   15.9001   35.1935   36.8091 N   0  0  0  0  0  0  0  0  0  0  0  0
    9.7785   45.0139   32.1608 H   0  0  0  0  0  0  0  0  0  0  0  0
   11.8841   45.7096   32.9049 H   0  0  0  0  0  0  0  0  0  0  0  0
   10.8140   46.9715   33.0976 H   0  0  0  0  0  0  0  0  0  0  0  0
    8.4461   46.6806   33.5011 H   0  0  0  0  0  0  0  0  0  0  0  0
    7.8016   45.0183   33.6214 H   0  0  0  0  0  0  0  0  0  0  0  0
    9.0921   46.5557   37.9945 H   0  0  0  0  0  0  0  0  0  0  0  0
   10.3952   47.7036   37.6026 H   0  0  0  0  0  0  0  0  0  0  0  0
   12.4426   46.7818   36.2872 H   0  0  0  0  0  0  0  0  0  0  0  0
   11.6623   42.5064   38.6720 H   0  0  0  0  0  0  0  0  0  0  0  0
   14.1791   45.0375   36.3072 H   0  0  0  0  0  0  0  0  0  0  0  0
   13.7811   42.8935   37.4775 H   0  0  0  0  0  0  0  0  0  0  0  0
    9.8312   40.7399   31.7564 H   0  0  0  0  0  0  0  0  0  0  0  0
   11.4002   41.5456   31.4755 H   0  0  0  0  0  0  0  0  0  0  0  0
   11.6989   39.5095   30.3492 H   0  0  0  0  0  0  0  0  0  0  0  0
   10.1130   38.2589   32.6665 H   0  0  0  0  0  0  0  0  0  0  0  0
   13.6800   37.4627   31.2266 H   0  0  0  0  0  0  0  0  0  0  0  0
    8.8955   38.6912   30.8890 H   0  0  0  0  0  0  0  0  0  0  0  0
   11.2831   36.3061   32.4930 H   0  0  0  0  0  0  0  0  0  0  0  0
   11.8859   36.9590   29.7594 H   0  0  0  0  0  0  0  0  0  0  0  0
   12.3363   38.3604   34.7442 H   0  0  0  0  0  0  0  0  0  0  0  0
   16.7572   34.1793   32.4621 H   0  0  0  0  0  0  0  0  0  0  0  0
   16.6362   34.5318   37.1416 H   0  0  0  0  0  0  0  0  0  0  0  0
   15.3529   35.7358   37.5140 H   0  0  0  0  0  0  0  0  0  0  0  0
  1  2  2  0
  1  3  1  0
  3  4  1  0
  4  5  1  0
  6  1  1  0
  7  6  1  0
  6  8  1  0
  8  9  1  0
  9 10  1  0
  9 11  2  0
 10 12  1  0
 12 13  1  0
 13 14  2  0
 15 13  1  0
 14 16  1  0
 14 17  1  0
 18 15  2  0
 16 19  1  0
 16 20  2  0
 17 21  2  0
 21 18  1  0
  4 22  2  0
  4 23  1  0
 24 23  1  0
 24 25  1  0
 25 26  1  0
 25 27  1  0
 26 28  1  0
 27 29  1  0
 27 30  1  0
 30 28  1  0
 28 31  1  0
 30 32  1  0
 33 31  1  0
 34 31  1  0
 35 33  2  0
 33 36  1  0
 37 34  2  0
 38 35  1  0
 36 39  2  0
 36 37  1  0
 40 38  2  0
 40 39  1  0
 39 41  1  0
  6 42  1  6
  7 43  1  0
  7 44  1  0
  8 45  1  0
  8 46  1  0
 12 47  1  0
 12 48  1  0
 15 49  1  0
 17 50  1  0
 18 51  1  0
 21 52  1  0
 24 53  1  0
 24 54  1  0
 25 55  1  0
 27 56  1  0
 28 57  1  0
 29 58  1  0
 30 59  1  0
 32 60  1  0
 34 61  1  0
 38 62  1  0
 41 63  1  0
 41 64  1  0
M  CHG  3   5  -1  16   1  19  -1
M  END
>  <EmbedRMS>  (186) 
0.08822077334119063

$$$$

     RDKit          3D

 64 67  0  0  0  0  0  0  0  0999 V2000
   10.2861   43.7710   33.8097 C   0  0  0  0  0  0  0  0  0  0  0  0
   11.4099   43.5818   34.3615 O   0  0  0  0  0  0  0  0  0  0  0  0
    9.3666   42.7310   33.7020 O   0  0  0  0  0  0  0  0  0  0  0  0
    9.8843   41.2332   34.2846 P   0  0  0  0  0  5  0  0  0  0  0  0
   10.3652   41.4679   35.8751 O   0  0  0  0  0  1  0  0  0  0  0  0
    9.9604   45.1127   33.2478 C   0  0  2  0  0  0  0  0  0  0  0  0
   11.0659   46.0478   33.4747 N   0  0  0  0  0  0  0  0  0  0  0  0
    8.6650   45.6568   33.8734 C   0  0  0  0  0  0  0  0  0  0  0  0
    8.2818   46.9688   33.2625 C   0  0  0  0  0  0  0  0  0  0  0  0
    8.8100   48.1501   33.7896 O   0  0  0  0  0  0  0  0  0  0  0  0
    7.5242   46.9951   32.2543 O   0  0  0  0  0  0  0  0  0  0  0  0
    8.5323   49.4340   33.2365 C   0  0  0  0  0  0  0  0  0  0  0  0
    9.2962   50.5120   33.9709 C   0  0  0  0  0  0  0  0  0  0  0  0
    8.7993   51.8387   34.0700 C   0  0  0  0  0  0  0  0  0  0  0  0
   10.5463   50.2062   34.5453 C   0  0  0  0  0  0  0  0  0  0  0  0
    7.5849   52.2407   33.4125 N   0  0  0  0  0  4  0  0  0  0  0  0
    9.5215   52.7897   34.8137 C   0  0  0  0  0  0  0  0  0  0  0  0
   11.2562   51.1698   35.2628 C   0  0  0  0  0  0  0  0  0  0  0  0
    7.3225   51.8296   32.1259 O   0  0  0  0  0  1  0  0  0  0  0  0
    6.8556   53.1152   33.9245 O   0  0  0  0  0  0  0  0  0  0  0  0
   10.7392   52.4554   35.4071 C   0  0  0  0  0  0  0  0  0  0  0  0
    8.8068   40.1904   34.2082 O   0  0  0  0  0  0  0  0  0  0  0  0
   11.2364   40.7902   33.3689 O   0  0  0  0  0  0  0  0  0  0  0  0
   10.9152   40.6897   31.9959 C   0  0  0  0  0  0  0  0  0  0  0  0
   11.5269   39.3898   31.4373 C   0  0  0  0  0  0  0  0  0  0  0  0
   12.7507   39.0916   32.0839 O   0  0  0  0  0  0  0  0  0  0  0  0
   10.6121   38.1915   31.6451 C   0  0  0  0  0  0  0  0  0  0  0  0
   12.9429   37.6853   32.0295 C   0  0  0  0  0  0  0  0  0  0  0  0
    9.6069   38.0857   30.6602 O   0  0  0  0  0  0  0  0  0  0  0  0
   11.5845   37.0186   31.6879 C   0  0  0  0  0  0  0  0  0  0  0  0
   13.4899   37.2163   33.3250 N   0  0  0  0  0  0  0  0  0  0  0  0
   11.6202   36.3062   30.4693 O   0  0  0  0  0  0  0  0  0  0  0  0
   14.4759   36.3263   33.5738 C   0  0  0  0  0  0  0  0  0  0  0  0
   13.1175   37.6307   34.5699 C   0  0  0  0  0  0  0  0  0  0  0  0
   15.2065   35.6139   32.6746 N   0  0  0  0  0  0  0  0  0  0  0  0
   14.6731   36.2267   34.9191 C   0  0  0  0  0  0  0  0  0  0  0  0
   13.8224   37.0450   35.5792 N   0  0  0  0  0  0  0  0  0  0  0  0
   16.1640   34.7596   33.1551 C   0  0  0  0  0  0  0  0  0  0  0  0
   15.6517   35.3489   35.4136 C   0  0  0  0  0  0  0  0  0  0  0  0
   16.3795   34.6310   34.5046 N   0  0  0  0  0  0  0  0  0  0  0  0
   15.9006   35.1931   36.8094 N   0  0  0  0  0  0  0  0  0  0  0  0
    9.8081   44.9965   32.1517 H   0  0  0  0  0  0  0  0  0  0  0  0
   11.9226   45.7010   32.9837 H   0  0  0  0  0  0  0  0  0  0  0  0
   11.2747   46.1206   34.4981 H   0  0  0  0  0  0  0  0  0  0  0  0
    7.8349   44.9327   33.7183 H   0  0  0  0  0  0  0  0  0  0  0  0
    8.7976   45.7899   34.9695 H   0  0  0  0  0  0  0  0  0  0  0  0
    7.4389   49.6118   33.3189 H   0  0  0  0  0  0  0  0  0  0  0  0
    8.8288   49.4515   32.1656 H   0  0  0  0  0  0  0  0  0  0  0  0
   10.9730   49.2155   34.4490 H   0  0  0  0  0  0  0  0  0  0  0  0
    9.1532   53.8033   34.9106 H   0  0  0  0  0  0  0  0  0  0  0  0
   12.2091   50.9177   35.7101 H   0  0  0  0  0  0  0  0  0  0  0  0
   11.2907   53.2000   35.9665 H   0  0  0  0  0  0  0  0  0  0  0  0
   11.3823   41.5526   31.4747 H   0  0  0  0  0  0  0  0  0  0  0  0
    9.8252   40.7190   31.7585 H   0  0  0  0  0  0  0  0  0  0  0  0
   11.7318   39.5338   30.3519 H   0  0  0  0  0  0  0  0  0  0  0  0
   10.1214   38.2681   32.6412 H   0  0  0  0  0  0  0  0  0  0  0  0
   13.6882   37.4708   31.2319 H   0  0  0  0  0  0  0  0  0  0  0  0
   10.0256   38.1750   29.7656 H   0  0  0  0  0  0  0  0  0  0  0  0
   11.2796   36.3123   32.4915 H   0  0  0  0  0  0  0  0  0  0  0  0
   11.9872   36.9099   29.7714 H   0  0  0  0  0  0  0  0  0  0  0  0
   12.3364   38.3595   34.7453 H   0  0  0  0  0  0  0  0  0  0  0  0
   16.7577   34.1795   32.4622 H   0  0  0  0  0  0  0  0  0  0  0  0
   16.6368   34.5316   37.1418 H   0  0  0  0  0  0  0  0  0  0  0  0
   15.3532   35.7351   37.5143 H   0  0  0  0  0  0  0  0  0  0  0  0
  1  2  2  0
  1  3  1  0
  3  4  1  0
  4  5  1  0
  6  1  1  0
  7  6  1  0
  6  8  1  0
  8  9  1  0
  9 10  1  0
  9 11  2  0
 10 12  1  0
 12 13  1  0
 13 14  2  0
 15 13  1  0
 14 16  1  0
 14 17  1  0
 18 15  2  0
 16 19  1  0
 16 20  2  0
 17 21  2  0
 21 18  1  0
  4 22  2  0
  4 23  1  0
 24 23  1  0
 24 25  1  0
 25 26  1  0
 25 27  1  0
 26 28  1  0
 27 29  1  0
 27 30  1  0
 30 28  1  0
 28 31  1  0
 30 32  1  0
 33 31  1  0
 34 31  1  0
 35 33  2  0
 33 36  1  0
 37 34  2  0
 38 35  1  0
 36 39  2  0
 36 37  1  0
 40 38  2  0
 40 39  1  0
 39 41  1  0
  6 42  1  6
  7 43  1  0
  7 44  1  0
  8 45  1  0
  8 46  1  0
 12 47  1  0
 12 48  1  0
 15 49  1  0
 17 50  1  0
 18 51  1  0
 21 52  1  0
 24 53  1  0
 24 54  1  0
 25 55  1  0
 27 56  1  0
 28 57  1  0
 29 58  1  0
 30 59  1  0
 32 60  1  0
 34 61  1  0
 38 62  1  0
 41 63  1  0
 41 64  1  0
M  CHG  3   5  -1  16   1  19  -1
M  END
>  <EmbedRMS>  (187) 
0.08751238285749281

$$$$

     RDKit          3D

 64 67  0  0  0  0  0  0  0  0999 V2000
   10.2842   43.7719   33.8120 C   0  0  0  0  0  0  0  0  0  0  0  0
   11.4082   43.5830   34.3634 O   0  0  0  0  0  0  0  0  0  0  0  0
    9.3700   42.7283   33.6982 O   0  0  0  0  0  0  0  0  0  0  0  0
    9.8851   41.2322   34.2844 P   0  0  0  0  0  5  0  0  0  0  0  0
   10.3647   41.4687   35.8750 O   0  0  0  0  0  1  0  0  0  0  0  0
    9.9557   45.1189   33.2545 C   0  0  2  0  0  0  0  0  0  0  0  0
   11.0697   46.0449   33.4683 N   0  0  0  0  0  0  0  0  0  0  0  0
    8.6819   45.7046   33.8935 C   0  0  0  0  0  0  0  0  0  0  0  0
    7.4511   44.9522   33.4892 C   0  0  0  0  0  0  0  0  0  0  0  0
    6.8629   44.0594   34.3927 O   0  0  0  0  0  0  0  0  0  0  0  0
    6.9746   45.1056   32.3313 O   0  0  0  0  0  0  0  0  0  0  0  0
    5.7346   43.2484   34.0668 C   0  0  0  0  0  0  0  0  0  0  0  0
    4.4722   44.0739   33.9355 C   0  0  0  0  0  0  0  0  0  0  0  0
    3.4415   43.7210   33.0255 C   0  0  0  0  0  0  0  0  0  0  0  0
    4.3034   45.2083   34.7532 C   0  0  0  0  0  0  0  0  0  0  0  0
    3.5037   42.5137   32.2474 N   0  0  0  0  0  4  0  0  0  0  0  0
    2.3206   44.5610   32.8968 C   0  0  0  0  0  0  0  0  0  0  0  0
    3.1746   46.0184   34.6239 C   0  0  0  0  0  0  0  0  0  0  0  0
    3.8951   41.3317   32.8329 O   0  0  0  0  0  1  0  0  0  0  0  0
    3.0145   42.4832   31.0991 O   0  0  0  0  0  0  0  0  0  0  0  0
    2.1911   45.7024   33.6889 C   0  0  0  0  0  0  0  0  0  0  0  0
    8.8065   40.1907   34.2080 O   0  0  0  0  0  0  0  0  0  0  0  0
   11.2369   40.7884   33.3693 O   0  0  0  0  0  0  0  0  0  0  0  0
   10.9158   40.6894   31.9961 C   0  0  0  0  0  0  0  0  0  0  0  0
   11.5270   39.3897   31.4371 C   0  0  0  0  0  0  0  0  0  0  0  0
   12.7509   39.0914   32.0835 O   0  0  0  0  0  0  0  0  0  0  0  0
   10.6122   38.1915   31.6451 C   0  0  0  0  0  0  0  0  0  0  0  0
   12.9429   37.6851   32.0294 C   0  0  0  0  0  0  0  0  0  0  0  0
    9.6069   38.0858   30.6603 O   0  0  0  0  0  0  0  0  0  0  0  0
   11.5844   37.0185   31.6879 C   0  0  0  0  0  0  0  0  0  0  0  0
   13.4898   37.2163   33.3249 N   0  0  0  0  0  0  0  0  0  0  0  0
   11.6201   36.3062   30.4692 O   0  0  0  0  0  0  0  0  0  0  0  0
   14.4759   36.3263   33.5738 C   0  0  0  0  0  0  0  0  0  0  0  0
   13.1175   37.6307   34.5698 C   0  0  0  0  0  0  0  0  0  0  0  0
   15.2065   35.6139   32.6746 N   0  0  0  0  0  0  0  0  0  0  0  0
   14.6731   36.2267   34.9190 C   0  0  0  0  0  0  0  0  0  0  0  0
   13.8224   37.0450   35.5792 N   0  0  0  0  0  0  0  0  0  0  0  0
   16.1640   34.7596   33.1551 C   0  0  0  0  0  0  0  0  0  0  0  0
   15.6517   35.3489   35.4136 C   0  0  0  0  0  0  0  0  0  0  0  0
   16.3795   34.6310   34.5046 N   0  0  0  0  0  0  0  0  0  0  0  0
   15.9006   35.1931   36.8094 N   0  0  0  0  0  0  0  0  0  0  0  0
    9.7954   45.0145   32.1584 H   0  0  0  0  0  0  0  0  0  0  0  0
   11.9184   45.6916   32.9679 H   0  0  0  0  0  0  0  0  0  0  0  0
   11.2908   46.1159   34.4893 H   0  0  0  0  0  0  0  0  0  0  0  0
    8.7743   45.6996   35.0018 H   0  0  0  0  0  0  0  0  0  0  0  0
    8.5638   46.7630   33.5736 H   0  0  0  0  0  0  0  0  0  0  0  0
    5.5876   42.5031   34.8759 H   0  0  0  0  0  0  0  0  0  0  0  0
    5.9612   42.7007   33.1276 H   0  0  0  0  0  0  0  0  0  0  0  0
    5.0545   45.4778   35.4851 H   0  0  0  0  0  0  0  0  0  0  0  0
    1.5297   44.3148   32.1996 H   0  0  0  0  0  0  0  0  0  0  0  0
    3.0642   46.8956   35.2483 H   0  0  0  0  0  0  0  0  0  0  0  0
    1.3179   46.3341   33.5886 H   0  0  0  0  0  0  0  0  0  0  0  0
    9.8257   40.7192   31.7585 H   0  0  0  0  0  0  0  0  0  0  0  0
   11.3833   41.5525   31.4757 H   0  0  0  0  0  0  0  0  0  0  0  0
   11.7317   39.5338   30.3517 H   0  0  0  0  0  0  0  0  0  0  0  0
   10.1215   38.2682   32.6412 H   0  0  0  0  0  0  0  0  0  0  0  0
   13.6882   37.4704   31.2318 H   0  0  0  0  0  0  0  0  0  0  0  0
   10.0255   38.1750   29.7656 H   0  0  0  0  0  0  0  0  0  0  0  0
   11.2795   36.3123   32.4915 H   0  0  0  0  0  0  0  0  0  0  0  0
   11.9870   36.9099   29.7714 H   0  0  0  0  0  0  0  0  0  0  0  0
   12.3365   38.3595   34.7452 H   0  0  0  0  0  0  0  0  0  0  0  0
   16.7577   34.1794   32.4622 H   0  0  0  0  0  0  0  0  0  0  0  0
   15.3532   35.7351   37.5143 H   0  0  0  0  0  0  0  0  0  0  0  0
   16.6368   34.5316   37.1418 H   0  0  0  0  0  0  0  0  0  0  0  0
  1  2  2  0
  1  3  1  0
  3  4  1  0
  4  5  1  0
  6  1  1  0
  7  6  1  0
  6  8  1  0
  8  9  1  0
  9 10  1  0
  9 11  2  0
 10 12  1  0
 12 13  1  0
 13 14  2  0
 15 13  1  0
 14 16  1  0
 14 17  1  0
 18 15  2  0
 16 19  1  0
 16 20  2  0
 17 21  2  0
 21 18  1  0
  4 22  2  0
  4 23  1  0
 24 23  1  0
 24 25  1  0
 25 26  1  0
 25 27  1  0
 26 28  1  0
 27 29  1  0
 27 30  1  0
 30 28  1  0
 28 31  1  0
 30 32  1  0
 33 31  1  0
 34 31  1  0
 35 33  2  0
 33 36  1  0
 37 34  2  0
 38 35  1  0
 36 39  2  0
 36 37  1  0
 40 38  2  0
 40 39  1  0
 39 41  1  0
  6 42  1  6
  7 43  1  0
  7 44  1  0
  8 45  1  0
  8 46  1  0
 12 47  1  0
 12 48  1  0
 15 49  1  0
 17 50  1  0
 18 51  1  0
 21 52  1  0
 24 53  1  0
 24 54  1  0
 25 55  1  0
 27 56  1  0
 28 57  1  0
 29 58  1  0
 30 59  1  0
 32 60  1  0
 34 61  1  0
 38 62  1  0
 41 63  1  0
 41 64  1  0
M  CHG  3   5  -1  16   1  19  -1
M  END
>  <EmbedRMS>  (188) 
0.08790730115935838

$$$$

     RDKit          3D

 64 67  0  0  0  0  0  0  0  0999 V2000
   10.2868   43.7707   33.8009 C   0  0  0  0  0  0  0  0  0  0  0  0
   11.4094   43.5865   34.3569 O   0  0  0  0  0  0  0  0  0  0  0  0
    9.3670   42.7308   33.6984 O   0  0  0  0  0  0  0  0  0  0  0  0
    9.8852   41.2346   34.2843 P   0  0  0  0  0  5  0  0  0  0  0  0
   10.3658   41.4709   35.8745 O   0  0  0  0  0  1  0  0  0  0  0  0
    9.9514   45.1165   33.2561 C   0  0  2  0  0  0  0  0  0  0  0  0
   11.0717   46.0324   33.4794 N   0  0  0  0  0  0  0  0  0  0  0  0
    8.6622   45.6669   33.9023 C   0  0  0  0  0  0  0  0  0  0  0  0
    8.7739   45.7494   35.3953 C   0  0  0  0  0  0  0  0  0  0  0  0
    9.5407   46.7660   35.9738 O   0  0  0  0  0  0  0  0  0  0  0  0
    8.2261   44.8685   36.1128 O   0  0  0  0  0  0  0  0  0  0  0  0
    9.9823   46.7261   37.3284 C   0  0  0  0  0  0  0  0  0  0  0  0
   11.0647   45.6816   37.4794 C   0  0  0  0  0  0  0  0  0  0  0  0
   10.8566   44.4461   38.1467 C   0  0  0  0  0  0  0  0  0  0  0  0
   12.2851   45.9039   36.8169 C   0  0  0  0  0  0  0  0  0  0  0  0
    9.6485   44.1673   38.8680 N   0  0  0  0  0  4  0  0  0  0  0  0
   11.8608   43.4644   38.1062 C   0  0  0  0  0  0  0  0  0  0  0  0
   13.2788   44.9241   36.8038 C   0  0  0  0  0  0  0  0  0  0  0  0
    9.0810   42.9167   38.7858 O   0  0  0  0  0  1  0  0  0  0  0  0
    9.2651   44.9448   39.7658 O   0  0  0  0  0  0  0  0  0  0  0  0
   13.0641   43.7035   37.4413 C   0  0  0  0  0  0  0  0  0  0  0  0
    8.8077   40.1916   34.2093 O   0  0  0  0  0  0  0  0  0  0  0  0
   11.2367   40.7906   33.3678 O   0  0  0  0  0  0  0  0  0  0  0  0
   10.9137   40.6861   31.9951 C   0  0  0  0  0  0  0  0  0  0  0  0
   11.5170   39.3799   31.4412 C   0  0  0  0  0  0  0  0  0  0  0  0
   12.7488   39.0887   32.0763 O   0  0  0  0  0  0  0  0  0  0  0  0
   10.6051   38.1877   31.6660 C   0  0  0  0  0  0  0  0  0  0  0  0
   12.9412   37.6829   32.0279 C   0  0  0  0  0  0  0  0  0  0  0  0
    9.6359   38.0932   30.6503 O   0  0  0  0  0  0  0  0  0  0  0  0
   11.5827   37.0180   31.6937 C   0  0  0  0  0  0  0  0  0  0  0  0
   13.4909   37.2177   33.3240 N   0  0  0  0  0  0  0  0  0  0  0  0
   11.6141   36.3181   30.4675 O   0  0  0  0  0  0  0  0  0  0  0  0
   14.4762   36.3270   33.5734 C   0  0  0  0  0  0  0  0  0  0  0  0
   13.1180   37.6318   34.5689 C   0  0  0  0  0  0  0  0  0  0  0  0
   15.2067   35.6140   32.6744 N   0  0  0  0  0  0  0  0  0  0  0  0
   14.6731   36.2273   34.9187 C   0  0  0  0  0  0  0  0  0  0  0  0
   13.8223   37.0457   35.5786 N   0  0  0  0  0  0  0  0  0  0  0  0
   16.1639   34.7595   33.1551 C   0  0  0  0  0  0  0  0  0  0  0  0
   15.6515   35.3492   35.4135 C   0  0  0  0  0  0  0  0  0  0  0  0
   16.3792   34.6310   34.5046 N   0  0  0  0  0  0  0  0  0  0  0  0
   15.9002   35.1934   36.8093 N   0  0  0  0  0  0  0  0  0  0  0  0
    9.7771   45.0139   32.1614 H   0  0  0  0  0  0  0  0  0  0  0  0
   10.8141   46.9714   33.0971 H   0  0  0  0  0  0  0  0  0  0  0  0
   11.8837   45.7092   32.9035 H   0  0  0  0  0  0  0  0  0  0  0  0
    7.8022   45.0171   33.6274 H   0  0  0  0  0  0  0  0  0  0  0  0
    8.4448   46.6797   33.5002 H   0  0  0  0  0  0  0  0  0  0  0  0
    9.1133   46.5643   37.9943 H   0  0  0  0  0  0  0  0  0  0  0  0
   10.4044   47.7192   37.5908 H   0  0  0  0  0  0  0  0  0  0  0  0
   12.4572   46.8328   36.2865 H   0  0  0  0  0  0  0  0  0  0  0  0
   11.7153   42.5149   38.6059 H   0  0  0  0  0  0  0  0  0  0  0  0
   14.2107   45.1059   36.2842 H   0  0  0  0  0  0  0  0  0  0  0  0
   13.8320   42.9410   37.4218 H   0  0  0  0  0  0  0  0  0  0  0  0
    9.8236   40.7213   31.7585 H   0  0  0  0  0  0  0  0  0  0  0  0
   11.3859   41.5436   31.4696 H   0  0  0  0  0  0  0  0  0  0  0  0
   11.6994   39.5069   30.3490 H   0  0  0  0  0  0  0  0  0  0  0  0
   10.1120   38.2723   32.6633 H   0  0  0  0  0  0  0  0  0  0  0  0
   13.6816   37.4633   31.2270 H   0  0  0  0  0  0  0  0  0  0  0  0
    9.0037   37.3830   30.9349 H   0  0  0  0  0  0  0  0  0  0  0  0
   11.2846   36.3041   32.4929 H   0  0  0  0  0  0  0  0  0  0  0  0
   11.8850   36.9591   29.7589 H   0  0  0  0  0  0  0  0  0  0  0  0
   12.3365   38.3602   34.7442 H   0  0  0  0  0  0  0  0  0  0  0  0
   16.7574   34.1791   32.4623 H   0  0  0  0  0  0  0  0  0  0  0  0
   16.6363   34.5317   37.1418 H   0  0  0  0  0  0  0  0  0  0  0  0
   15.3530   35.7356   37.5141 H   0  0  0  0  0  0  0  0  0  0  0  0
  1  2  2  0
  1  3  1  0
  3  4  1  0
  4  5  1  0
  6  1  1  0
  7  6  1  0
  6  8  1  0
  8  9  1  0
  9 10  1  0
  9 11  2  0
 10 12  1  0
 12 13  1  0
 13 14  2  0
 15 13  1  0
 14 16  1  0
 14 17  1  0
 18 15  2  0
 16 19  1  0
 16 20  2  0
 17 21  2  0
 21 18  1  0
  4 22  2  0
  4 23  1  0
 24 23  1  0
 24 25  1  0
 25 26  1  0
 25 27  1  0
 26 28  1  0
 27 29  1  0
 27 30  1  0
 30 28  1  0
 28 31  1  0
 30 32  1  0
 33 31  1  0
 34 31  1  0
 35 33  2  0
 33 36  1  0
 37 34  2  0
 38 35  1  0
 36 39  2  0
 36 37  1  0
 40 38  2  0
 40 39  1  0
 39 41  1  0
  6 42  1  6
  7 43  1  0
  7 44  1  0
  8 45  1  0
  8 46  1  0
 12 47  1  0
 12 48  1  0
 15 49  1  0
 17 50  1  0
 18 51  1  0
 21 52  1  0
 24 53  1  0
 24 54  1  0
 25 55  1  0
 27 56  1  0
 28 57  1  0
 29 58  1  0
 30 59  1  0
 32 60  1  0
 34 61  1  0
 38 62  1  0
 41 63  1  0
 41 64  1  0
M  CHG  3   5  -1  16   1  19  -1
M  END
>  <EmbedRMS>  (189) 
0.08776258968806383

$$$$

     RDKit          3D

 64 67  0  0  0  0  0  0  0  0999 V2000
   10.2876   43.7688   33.8087 C   0  0  0  0  0  0  0  0  0  0  0  0
   11.4116   43.5792   34.3594 O   0  0  0  0  0  0  0  0  0  0  0  0
    9.3665   42.7304   33.7018 O   0  0  0  0  0  0  0  0  0  0  0  0
    9.8844   41.2325   34.2835 P   0  0  0  0  0  5  0  0  0  0  0  0
   10.3656   41.4676   35.8740 O   0  0  0  0  0  1  0  0  0  0  0  0
    9.9636   45.1118   33.2474 C   0  0  2  0  0  0  0  0  0  0  0  0
   11.0623   46.0541   33.4762 N   0  0  0  0  0  0  0  0  0  0  0  0
    8.6426   45.6684   33.8124 C   0  0  0  0  0  0  0  0  0  0  0  0
    8.6666   45.8189   35.3048 C   0  0  0  0  0  0  0  0  0  0  0  0
    9.1654   46.9960   35.8687 O   0  0  0  0  0  0  0  0  0  0  0  0
    8.2707   44.8715   36.0378 O   0  0  0  0  0  0  0  0  0  0  0  0
    9.2727   47.1906   37.2765 C   0  0  0  0  0  0  0  0  0  0  0  0
    9.9130   48.5239   37.5884 C   0  0  0  0  0  0  0  0  0  0  0  0
    9.6157   49.2289   38.7848 C   0  0  0  0  0  0  0  0  0  0  0  0
   10.8522   49.0688   36.6900 C   0  0  0  0  0  0  0  0  0  0  0  0
    8.7509   48.6752   39.7920 N   0  0  0  0  0  4  0  0  0  0  0  0
   10.1955   50.4924   39.0006 C   0  0  0  0  0  0  0  0  0  0  0  0
   11.4308   50.3153   36.9325 C   0  0  0  0  0  0  0  0  0  0  0  0
    8.8560   47.3497   40.1458 O   0  0  0  0  0  1  0  0  0  0  0  0
    8.0360   49.4276   40.4860 O   0  0  0  0  0  0  0  0  0  0  0  0
   11.0939   51.0311   38.0791 C   0  0  0  0  0  0  0  0  0  0  0  0
    8.8065   40.1902   34.2080 O   0  0  0  0  0  0  0  0  0  0  0  0
   11.2363   40.7897   33.3664 O   0  0  0  0  0  0  0  0  0  0  0  0
   10.9140   40.6849   31.9934 C   0  0  0  0  0  0  0  0  0  0  0  0
   11.5165   39.3773   31.4394 C   0  0  0  0  0  0  0  0  0  0  0  0
   12.7471   39.0855   32.0740 O   0  0  0  0  0  0  0  0  0  0  0  0
   10.6047   38.1867   31.6670 C   0  0  0  0  0  0  0  0  0  0  0  0
   12.9345   37.6791   32.0282 C   0  0  0  0  0  0  0  0  0  0  0  0
    9.6378   38.0917   30.6488 O   0  0  0  0  0  0  0  0  0  0  0  0
   11.5761   37.0129   31.7056 C   0  0  0  0  0  0  0  0  0  0  0  0
   13.4909   37.2177   33.3233 N   0  0  0  0  0  0  0  0  0  0  0  0
   11.6234   36.3371   30.4684 O   0  0  0  0  0  0  0  0  0  0  0  0
   14.4765   36.3272   33.5727 C   0  0  0  0  0  0  0  0  0  0  0  0
   13.1182   37.6316   34.5685 C   0  0  0  0  0  0  0  0  0  0  0  0
   15.2066   35.6138   32.6739 N   0  0  0  0  0  0  0  0  0  0  0  0
   14.6736   36.2276   34.9182 C   0  0  0  0  0  0  0  0  0  0  0  0
   13.8227   37.0457   35.5781 N   0  0  0  0  0  0  0  0  0  0  0  0
   16.1638   34.7593   33.1548 C   0  0  0  0  0  0  0  0  0  0  0  0
   15.6517   35.3493   35.4131 C   0  0  0  0  0  0  0  0  0  0  0  0
   16.3792   34.6309   34.5043 N   0  0  0  0  0  0  0  0  0  0  0  0
   15.9002   35.1934   36.8090 N   0  0  0  0  0  0  0  0  0  0  0  0
    9.8322   44.9921   32.1494 H   0  0  0  0  0  0  0  0  0  0  0  0
   11.9080   45.7290   32.9524 H   0  0  0  0  0  0  0  0  0  0  0  0
   11.3078   46.0937   34.4927 H   0  0  0  0  0  0  0  0  0  0  0  0
    7.8021   45.0001   33.5229 H   0  0  0  0  0  0  0  0  0  0  0  0
    8.4409   46.6609   33.3547 H   0  0  0  0  0  0  0  0  0  0  0  0
    9.8949   46.3828   37.7185 H   0  0  0  0  0  0  0  0  0  0  0  0
    8.2495   47.1444   37.7065 H   0  0  0  0  0  0  0  0  0  0  0  0
   11.1336   48.5350   35.7909 H   0  0  0  0  0  0  0  0  0  0  0  0
    9.9720   51.0506   39.9011 H   0  0  0  0  0  0  0  0  0  0  0  0
   12.1409   50.7280   36.2274 H   0  0  0  0  0  0  0  0  0  0  0  0
   11.5423   51.9990   38.2632 H   0  0  0  0  0  0  0  0  0  0  0  0
    9.8241   40.7212   31.7564 H   0  0  0  0  0  0  0  0  0  0  0  0
   11.3872   41.5416   31.4677 H   0  0  0  0  0  0  0  0  0  0  0  0
   11.6985   39.5014   30.3468 H   0  0  0  0  0  0  0  0  0  0  0  0
   10.1095   38.2769   32.6629 H   0  0  0  0  0  0  0  0  0  0  0  0
   13.6672   37.4546   31.2213 H   0  0  0  0  0  0  0  0  0  0  0  0
    8.9780   37.4156   30.9532 H   0  0  0  0  0  0  0  0  0  0  0  0
   11.2861   36.3041   32.5176 H   0  0  0  0  0  0  0  0  0  0  0  0
   10.8691   35.6918   30.4657 H   0  0  0  0  0  0  0  0  0  0  0  0
   12.3356   38.3587   34.7440 H   0  0  0  0  0  0  0  0  0  0  0  0
   16.7572   34.1786   32.4621 H   0  0  0  0  0  0  0  0  0  0  0  0
   16.6361   34.5315   37.1415 H   0  0  0  0  0  0  0  0  0  0  0  0
   15.3530   35.7358   37.5138 H   0  0  0  0  0  0  0  0  0  0  0  0
  1  2  2  0
  1  3  1  0
  3  4  1  0
  4  5  1  0
  6  1  1  0
  7  6  1  0
  6  8  1  0
  8  9  1  0
  9 10  1  0
  9 11  2  0
 10 12  1  0
 12 13  1  0
 13 14  2  0
 15 13  1  0
 14 16  1  0
 14 17  1  0
 18 15  2  0
 16 19  1  0
 16 20  2  0
 17 21  2  0
 21 18  1  0
  4 22  2  0
  4 23  1  0
 24 23  1  0
 24 25  1  0
 25 26  1  0
 25 27  1  0
 26 28  1  0
 27 29  1  0
 27 30  1  0
 30 28  1  0
 28 31  1  0
 30 32  1  0
 33 31  1  0
 34 31  1  0
 35 33  2  0
 33 36  1  0
 37 34  2  0
 38 35  1  0
 36 39  2  0
 36 37  1  0
 40 38  2  0
 40 39  1  0
 39 41  1  0
  6 42  1  6
  7 43  1  0
  7 44  1  0
  8 45  1  0
  8 46  1  0
 12 47  1  0
 12 48  1  0
 15 49  1  0
 17 50  1  0
 18 51  1  0
 21 52  1  0
 24 53  1  0
 24 54  1  0
 25 55  1  0
 27 56  1  0
 28 57  1  0
 29 58  1  0
 30 59  1  0
 32 60  1  0
 34 61  1  0
 38 62  1  0
 41 63  1  0
 41 64  1  0
M  CHG  3   5  -1  16   1  19  -1
M  END
>  <EmbedRMS>  (190) 
0.0896509996795169

$$$$

     RDKit          3D

 64 67  0  0  0  0  0  0  0  0999 V2000
   10.2826   43.7750   33.8144 C   0  0  0  0  0  0  0  0  0  0  0  0
   11.4127   43.5869   34.3522 O   0  0  0  0  0  0  0  0  0  0  0  0
    9.3650   42.7329   33.7083 O   0  0  0  0  0  0  0  0  0  0  0  0
    9.8850   41.2338   34.2854 P   0  0  0  0  0  5  0  0  0  0  0  0
   10.3651   41.4635   35.8761 O   0  0  0  0  0  1  0  0  0  0  0  0
    9.9668   45.1049   33.2290 C   0  0  2  0  0  0  0  0  0  0  0  0
   11.0624   46.0423   33.4896 N   0  0  0  0  0  0  0  0  0  0  0  0
    8.5987   45.6498   33.7014 C   0  0  0  0  0  0  0  0  0  0  0  0
    8.5809   46.1255   35.1265 C   0  0  0  0  0  0  0  0  0  0  0  0
    9.0333   45.2918   36.1576 O   0  0  0  0  0  0  0  0  0  0  0  0
    8.1095   47.2657   35.3857 O   0  0  0  0  0  0  0  0  0  0  0  0
    9.0454   45.6808   37.5322 C   0  0  0  0  0  0  0  0  0  0  0  0
   10.1728   46.6503   37.8072 C   0  0  0  0  0  0  0  0  0  0  0  0
   11.5047   46.2222   38.0635 C   0  0  0  0  0  0  0  0  0  0  0  0
    9.8806   48.0271   37.8259 C   0  0  0  0  0  0  0  0  0  0  0  0
   11.8712   44.8296   38.0804 N   0  0  0  0  0  4  0  0  0  0  0  0
   12.4918   47.1880   38.3381 C   0  0  0  0  0  0  0  0  0  0  0  0
   10.8777   48.9663   38.0884 C   0  0  0  0  0  0  0  0  0  0  0  0
   11.3050   43.9396   37.2000 O   0  0  0  0  0  1  0  0  0  0  0  0
   12.8139   44.4391   38.8000 O   0  0  0  0  0  0  0  0  0  0  0  0
   12.1807   48.5477   38.3443 C   0  0  0  0  0  0  0  0  0  0  0  0
    8.8079   40.1908   34.2069 O   0  0  0  0  0  0  0  0  0  0  0  0
   11.2379   40.7927   33.3693 O   0  0  0  0  0  0  0  0  0  0  0  0
   10.9180   40.6910   31.9961 C   0  0  0  0  0  0  0  0  0  0  0  0
   11.5172   39.3826   31.4415 C   0  0  0  0  0  0  0  0  0  0  0  0
   12.7491   39.0896   32.0760 O   0  0  0  0  0  0  0  0  0  0  0  0
   10.6034   38.1900   31.6660 C   0  0  0  0  0  0  0  0  0  0  0  0
   12.9400   37.6836   32.0277 C   0  0  0  0  0  0  0  0  0  0  0  0
    9.6376   38.0785   30.6474 O   0  0  0  0  0  0  0  0  0  0  0  0
   11.5803   37.0205   31.6937 C   0  0  0  0  0  0  0  0  0  0  0  0
   13.4901   37.2178   33.3238 N   0  0  0  0  0  0  0  0  0  0  0  0
   11.6118   36.3194   30.4681 O   0  0  0  0  0  0  0  0  0  0  0  0
   14.4758   36.3272   33.5731 C   0  0  0  0  0  0  0  0  0  0  0  0
   13.1176   37.6318   34.5688 C   0  0  0  0  0  0  0  0  0  0  0  0
   15.2064   35.6142   32.6742 N   0  0  0  0  0  0  0  0  0  0  0  0
   14.6729   36.2274   34.9184 C   0  0  0  0  0  0  0  0  0  0  0  0
   13.8221   37.0458   35.5784 N   0  0  0  0  0  0  0  0  0  0  0  0
   16.1637   34.7597   33.1549 C   0  0  0  0  0  0  0  0  0  0  0  0
   15.6513   35.3493   35.4132 C   0  0  0  0  0  0  0  0  0  0  0  0
   16.3791   34.6312   34.5043 N   0  0  0  0  0  0  0  0  0  0  0  0
   15.9001   35.1935   36.8091 N   0  0  0  0  0  0  0  0  0  0  0  0
    9.9017   44.9546   32.1290 H   0  0  0  0  0  0  0  0  0  0  0  0
   11.1458   46.2267   34.5162 H   0  0  0  0  0  0  0  0  0  0  0  0
   10.8403   46.9533   33.0260 H   0  0  0  0  0  0  0  0  0  0  0  0
    7.8148   44.8725   33.5758 H   0  0  0  0  0  0  0  0  0  0  0  0
    8.3154   46.4953   33.0364 H   0  0  0  0  0  0  0  0  0  0  0  0
    8.0618   46.1220   37.8069 H   0  0  0  0  0  0  0  0  0  0  0  0
    9.1565   44.7785   38.1681 H   0  0  0  0  0  0  0  0  0  0  0  0
    8.8720   48.3784   37.6489 H   0  0  0  0  0  0  0  0  0  0  0  0
   13.5126   46.8869   38.5368 H   0  0  0  0  0  0  0  0  0  0  0  0
   10.6374   50.0217   38.0993 H   0  0  0  0  0  0  0  0  0  0  0  0
   12.9523   49.2783   38.5507 H   0  0  0  0  0  0  0  0  0  0  0  0
   11.3981   41.5458   31.4735 H   0  0  0  0  0  0  0  0  0  0  0  0
    9.8299   40.7396   31.7567 H   0  0  0  0  0  0  0  0  0  0  0  0
   11.6987   39.5093   30.3492 H   0  0  0  0  0  0  0  0  0  0  0  0
   10.1128   38.2588   32.6664 H   0  0  0  0  0  0  0  0  0  0  0  0
   13.6800   37.4633   31.2266 H   0  0  0  0  0  0  0  0  0  0  0  0
    8.8951   38.6907   30.8891 H   0  0  0  0  0  0  0  0  0  0  0  0
   11.2831   36.3061   32.4930 H   0  0  0  0  0  0  0  0  0  0  0  0
   11.8859   36.9591   29.7594 H   0  0  0  0  0  0  0  0  0  0  0  0
   12.3361   38.3601   34.7443 H   0  0  0  0  0  0  0  0  0  0  0  0
   16.7572   34.1793   32.4621 H   0  0  0  0  0  0  0  0  0  0  0  0
   16.6362   34.5318   37.1415 H   0  0  0  0  0  0  0  0  0  0  0  0
   15.3528   35.7357   37.5140 H   0  0  0  0  0  0  0  0  0  0  0  0
  1  2  2  0
  1  3  1  0
  3  4  1  0
  4  5  1  0
  6  1  1  0
  7  6  1  0
  6  8  1  0
  8  9  1  0
  9 10  1  0
  9 11  2  0
 10 12  1  0
 12 13  1  0
 13 14  2  0
 15 13  1  0
 14 16  1  0
 14 17  1  0
 18 15  2  0
 16 19  1  0
 16 20  2  0
 17 21  2  0
 21 18  1  0
  4 22  2  0
  4 23  1  0
 24 23  1  0
 24 25  1  0
 25 26  1  0
 25 27  1  0
 26 28  1  0
 27 29  1  0
 27 30  1  0
 30 28  1  0
 28 31  1  0
 30 32  1  0
 33 31  1  0
 34 31  1  0
 35 33  2  0
 33 36  1  0
 37 34  2  0
 38 35  1  0
 36 39  2  0
 36 37  1  0
 40 38  2  0
 40 39  1  0
 39 41  1  0
  6 42  1  6
  7 43  1  0
  7 44  1  0
  8 45  1  0
  8 46  1  0
 12 47  1  0
 12 48  1  0
 15 49  1  0
 17 50  1  0
 18 51  1  0
 21 52  1  0
 24 53  1  0
 24 54  1  0
 25 55  1  0
 27 56  1  0
 28 57  1  0
 29 58  1  0
 30 59  1  0
 32 60  1  0
 34 61  1  0
 38 62  1  0
 41 63  1  0
 41 64  1  0
M  CHG  3   5  -1  16   1  19  -1
M  END
>  <EmbedRMS>  (191) 
0.08864124524618511

$$$$

     RDKit          3D

 64 67  0  0  0  0  0  0  0  0999 V2000
   10.2864   43.7711   33.8022 C   0  0  0  0  0  0  0  0  0  0  0  0
   11.4119   43.5862   34.3521 O   0  0  0  0  0  0  0  0  0  0  0  0
    9.3670   42.7308   33.6991 O   0  0  0  0  0  0  0  0  0  0  0  0
    9.8851   41.2346   34.2848 P   0  0  0  0  0  5  0  0  0  0  0  0
   10.3653   41.4713   35.8750 O   0  0  0  0  0  1  0  0  0  0  0  0
    9.9550   45.1132   33.2493 C   0  0  2  0  0  0  0  0  0  0  0  0
   11.0680   46.0344   33.4868 N   0  0  0  0  0  0  0  0  0  0  0  0
    8.6206   45.6659   33.8076 C   0  0  0  0  0  0  0  0  0  0  0  0
    8.4981   45.5290   35.2984 C   0  0  0  0  0  0  0  0  0  0  0  0
    9.1760   46.4187   36.1387 O   0  0  0  0  0  0  0  0  0  0  0  0
    7.8139   44.5858   35.7801 O   0  0  0  0  0  0  0  0  0  0  0  0
    9.2352   46.2679   37.5569 C   0  0  0  0  0  0  0  0  0  0  0  0
   10.0349   45.0388   37.9309 C   0  0  0  0  0  0  0  0  0  0  0  0
    9.5395   44.0261   38.7954 C   0  0  0  0  0  0  0  0  0  0  0  0
   11.3546   44.9430   37.4531 C   0  0  0  0  0  0  0  0  0  0  0  0
    8.2077   44.0628   39.3291 N   0  0  0  0  0  4  0  0  0  0  0  0
   10.3791   42.9585   39.1558 C   0  0  0  0  0  0  0  0  0  0  0  0
   12.1659   43.8641   37.8060 C   0  0  0  0  0  0  0  0  0  0  0  0
    7.9930   43.7098   40.6413 O   0  0  0  0  0  1  0  0  0  0  0  0
    7.2273   44.1471   38.5619 O   0  0  0  0  0  0  0  0  0  0  0  0
   11.6799   42.8748   38.6580 C   0  0  0  0  0  0  0  0  0  0  0  0
    8.8076   40.1917   34.2096 O   0  0  0  0  0  0  0  0  0  0  0  0
   11.2369   40.7896   33.3692 O   0  0  0  0  0  0  0  0  0  0  0  0
   10.9159   40.6890   31.9959 C   0  0  0  0  0  0  0  0  0  0  0  0
   11.5251   39.3874   31.4368 C   0  0  0  0  0  0  0  0  0  0  0  0
   12.7486   39.0880   32.0804 O   0  0  0  0  0  0  0  0  0  0  0  0
   10.6100   38.1910   31.6472 C   0  0  0  0  0  0  0  0  0  0  0  0
   12.9348   37.6808   32.0293 C   0  0  0  0  0  0  0  0  0  0  0  0
    9.6127   38.0875   30.6547 O   0  0  0  0  0  0  0  0  0  0  0  0
   11.5767   37.0134   31.7026 C   0  0  0  0  0  0  0  0  0  0  0  0
   13.4901   37.2166   33.3237 N   0  0  0  0  0  0  0  0  0  0  0  0
   11.6321   36.3232   30.4742 O   0  0  0  0  0  0  0  0  0  0  0  0
   14.4762   36.3266   33.5728 C   0  0  0  0  0  0  0  0  0  0  0  0
   13.1180   37.6308   34.5690 C   0  0  0  0  0  0  0  0  0  0  0  0
   15.2065   35.6136   32.6739 N   0  0  0  0  0  0  0  0  0  0  0  0
   14.6736   36.2272   34.9182 C   0  0  0  0  0  0  0  0  0  0  0  0
   13.8229   37.0453   35.5784 N   0  0  0  0  0  0  0  0  0  0  0  0
   16.1639   34.7593   33.1547 C   0  0  0  0  0  0  0  0  0  0  0  0
   15.6518   35.3491   35.4131 C   0  0  0  0  0  0  0  0  0  0  0  0
   16.3794   34.6309   34.5042 N   0  0  0  0  0  0  0  0  0  0  0  0
   15.9004   35.1933   36.8089 N   0  0  0  0  0  0  0  0  0  0  0  0
    9.8396   44.9940   32.1494 H   0  0  0  0  0  0  0  0  0  0  0  0
   11.1301   46.2672   34.5032 H   0  0  0  0  0  0  0  0  0  0  0  0
   10.8787   46.9271   32.9754 H   0  0  0  0  0  0  0  0  0  0  0  0
    7.7782   45.1220   33.3259 H   0  0  0  0  0  0  0  0  0  0  0  0
    8.5101   46.7363   33.5313 H   0  0  0  0  0  0  0  0  0  0  0  0
    9.7475   47.1571   37.9806 H   0  0  0  0  0  0  0  0  0  0  0  0
    8.2098   46.2719   37.9735 H   0  0  0  0  0  0  0  0  0  0  0  0
   11.7610   45.7142   36.8113 H   0  0  0  0  0  0  0  0  0  0  0  0
   10.0167   42.1786   39.8136 H   0  0  0  0  0  0  0  0  0  0  0  0
   13.1771   43.8007   37.4251 H   0  0  0  0  0  0  0  0  0  0  0  0
   12.3125   42.0412   38.9347 H   0  0  0  0  0  0  0  0  0  0  0  0
   11.3846   41.5508   31.4744 H   0  0  0  0  0  0  0  0  0  0  0  0
    9.8260   40.7204   31.7585 H   0  0  0  0  0  0  0  0  0  0  0  0
   11.7271   39.5291   30.3505 H   0  0  0  0  0  0  0  0  0  0  0  0
   10.1121   38.2731   32.6391 H   0  0  0  0  0  0  0  0  0  0  0  0
   13.6685   37.4592   31.2225 H   0  0  0  0  0  0  0  0  0  0  0  0
   10.0515   38.1114   29.7649 H   0  0  0  0  0  0  0  0  0  0  0  0
   11.2801   36.3129   32.5196 H   0  0  0  0  0  0  0  0  0  0  0  0
   10.8624   35.6961   30.4646 H   0  0  0  0  0  0  0  0  0  0  0  0
   12.3358   38.3584   34.7446 H   0  0  0  0  0  0  0  0  0  0  0  0
   16.7574   34.1788   32.4620 H   0  0  0  0  0  0  0  0  0  0  0  0
   15.3532   35.7356   37.5138 H   0  0  0  0  0  0  0  0  0  0  0  0
   16.6364   34.5315   37.1415 H   0  0  0  0  0  0  0  0  0  0  0  0
  1  2  2  0
  1  3  1  0
  3  4  1  0
  4  5  1  0
  6  1  1  0
  7  6  1  0
  6  8  1  0
  8  9  1  0
  9 10  1  0
  9 11  2  0
 10 12  1  0
 12 13  1  0
 13 14  2  0
 15 13  1  0
 14 16  1  0
 14 17  1  0
 18 15  2  0
 16 19  1  0
 16 20  2  0
 17 21  2  0
 21 18  1  0
  4 22  2  0
  4 23  1  0
 24 23  1  0
 24 25  1  0
 25 26  1  0
 25 27  1  0
 26 28  1  0
 27 29  1  0
 27 30  1  0
 30 28  1  0
 28 31  1  0
 30 32  1  0
 33 31  1  0
 34 31  1  0
 35 33  2  0
 33 36  1  0
 37 34  2  0
 38 35  1  0
 36 39  2  0
 36 37  1  0
 40 38  2  0
 40 39  1  0
 39 41  1  0
  6 42  1  6
  7 43  1  0
  7 44  1  0
  8 45  1  0
  8 46  1  0
 12 47  1  0
 12 48  1  0
 15 49  1  0
 17 50  1  0
 18 51  1  0
 21 52  1  0
 24 53  1  0
 24 54  1  0
 25 55  1  0
 27 56  1  0
 28 57  1  0
 29 58  1  0
 30 59  1  0
 32 60  1  0
 34 61  1  0
 38 62  1  0
 41 63  1  0
 41 64  1  0
M  CHG  3   5  -1  16   1  19  -1
M  END
>  <EmbedRMS>  (192) 
0.08792934581808083

$$$$

     RDKit          3D

 64 67  0  0  0  0  0  0  0  0999 V2000
   10.2880   43.7685   33.8084 C   0  0  0  0  0  0  0  0  0  0  0  0
   11.4117   43.5792   34.3601 O   0  0  0  0  0  0  0  0  0  0  0  0
    9.3667   42.7304   33.7018 O   0  0  0  0  0  0  0  0  0  0  0  0
    9.8842   41.2326   34.2837 P   0  0  0  0  0  5  0  0  0  0  0  0
   10.3655   41.4677   35.8742 O   0  0  0  0  0  1  0  0  0  0  0  0
    9.9645   45.1110   33.2463 C   0  0  2  0  0  0  0  0  0  0  0  0
   11.0611   46.0543   33.4762 N   0  0  0  0  0  0  0  0  0  0  0  0
    8.6410   45.6687   33.8044 C   0  0  0  0  0  0  0  0  0  0  0  0
    8.6135   45.7369   35.3040 C   0  0  0  0  0  0  0  0  0  0  0  0
    9.1805   46.8343   35.9579 O   0  0  0  0  0  0  0  0  0  0  0  0
    8.0936   44.7953   35.9632 O   0  0  0  0  0  0  0  0  0  0  0  0
    9.1062   47.0095   37.3691 C   0  0  0  0  0  0  0  0  0  0  0  0
    9.8473   48.2621   37.7568 C   0  0  0  0  0  0  0  0  0  0  0  0
   11.2186   48.2534   38.1286 C   0  0  0  0  0  0  0  0  0  0  0  0
    9.1468   49.4819   37.7383 C   0  0  0  0  0  0  0  0  0  0  0  0
   12.0021   47.0461   38.1161 N   0  0  0  0  0  4  0  0  0  0  0  0
   11.8273   49.4596   38.5235 C   0  0  0  0  0  0  0  0  0  0  0  0
    9.7741   50.6692   38.1182 C   0  0  0  0  0  0  0  0  0  0  0  0
   11.8730   46.1384   37.0907 O   0  0  0  0  0  1  0  0  0  0  0  0
   12.9303   46.8941   38.9374 O   0  0  0  0  0  0  0  0  0  0  0  0
   11.1097   50.6570   38.5168 C   0  0  0  0  0  0  0  0  0  0  0  0
    8.8062   40.1904   34.2081 O   0  0  0  0  0  0  0  0  0  0  0  0
   11.2359   40.7897   33.3664 O   0  0  0  0  0  0  0  0  0  0  0  0
   10.9132   40.6843   31.9935 C   0  0  0  0  0  0  0  0  0  0  0  0
   11.5172   39.3774   31.4396 C   0  0  0  0  0  0  0  0  0  0  0  0
   12.7476   39.0871   32.0756 O   0  0  0  0  0  0  0  0  0  0  0  0
   10.6068   38.1851   31.6657 C   0  0  0  0  0  0  0  0  0  0  0  0
   12.9373   37.6813   32.0290 C   0  0  0  0  0  0  0  0  0  0  0  0
    9.6405   38.0881   30.6473 O   0  0  0  0  0  0  0  0  0  0  0  0
   11.5789   37.0135   31.7045 C   0  0  0  0  0  0  0  0  0  0  0  0
   13.4916   37.2184   33.3239 N   0  0  0  0  0  0  0  0  0  0  0  0
   11.6124   36.3390   30.4674 O   0  0  0  0  0  0  0  0  0  0  0  0
   14.4766   36.3273   33.5731 C   0  0  0  0  0  0  0  0  0  0  0  0
   13.1185   37.6318   34.5691 C   0  0  0  0  0  0  0  0  0  0  0  0
   15.2065   35.6139   32.6740 N   0  0  0  0  0  0  0  0  0  0  0  0
   14.6736   36.2274   34.9184 C   0  0  0  0  0  0  0  0  0  0  0  0
   13.8228   37.0455   35.5786 N   0  0  0  0  0  0  0  0  0  0  0  0
   16.1636   34.7592   33.1547 C   0  0  0  0  0  0  0  0  0  0  0  0
   15.6517   35.3490   35.4131 C   0  0  0  0  0  0  0  0  0  0  0  0
   16.3792   34.6307   34.5042 N   0  0  0  0  0  0  0  0  0  0  0  0
   15.9004   35.1931   36.8089 N   0  0  0  0  0  0  0  0  0  0  0  0
    9.8375   44.9913   32.1478 H   0  0  0  0  0  0  0  0  0  0  0  0
   11.9115   45.7249   32.9626 H   0  0  0  0  0  0  0  0  0  0  0  0
   11.2962   46.1014   34.4936 H   0  0  0  0  0  0  0  0  0  0  0  0
    7.7977   45.0350   33.4515 H   0  0  0  0  0  0  0  0  0  0  0  0
    8.4722   46.6879   33.3948 H   0  0  0  0  0  0  0  0  0  0  0  0
    9.5191   46.1228   37.8950 H   0  0  0  0  0  0  0  0  0  0  0  0
    8.0389   47.0905   37.6723 H   0  0  0  0  0  0  0  0  0  0  0  0
    8.1059   49.5120   37.4383 H   0  0  0  0  0  0  0  0  0  0  0  0
   12.8695   49.4765   38.8176 H   0  0  0  0  0  0  0  0  0  0  0  0
    9.2217   51.6002   38.1068 H   0  0  0  0  0  0  0  0  0  0  0  0
   11.5936   51.5789   38.8135 H   0  0  0  0  0  0  0  0  0  0  0  0
   11.3851   41.5414   31.4675 H   0  0  0  0  0  0  0  0  0  0  0  0
    9.8231   40.7192   31.7571 H   0  0  0  0  0  0  0  0  0  0  0  0
   11.7002   39.5022   30.3472 H   0  0  0  0  0  0  0  0  0  0  0  0
   10.1092   38.2747   32.6604 H   0  0  0  0  0  0  0  0  0  0  0  0
   13.6716   37.4597   31.2228 H   0  0  0  0  0  0  0  0  0  0  0  0
    9.0030   37.3837   30.9349 H   0  0  0  0  0  0  0  0  0  0  0  0
   11.2707   36.3051   32.5091 H   0  0  0  0  0  0  0  0  0  0  0  0
   12.1444   35.5138   30.6139 H   0  0  0  0  0  0  0  0  0  0  0  0
   12.3360   38.3590   34.7446 H   0  0  0  0  0  0  0  0  0  0  0  0
   16.7570   34.1788   32.4618 H   0  0  0  0  0  0  0  0  0  0  0  0
   15.3529   35.7352   37.5137 H   0  0  0  0  0  0  0  0  0  0  0  0
   16.6360   34.5310   37.1414 H   0  0  0  0  0  0  0  0  0  0  0  0
  1  2  2  0
  1  3  1  0
  3  4  1  0
  4  5  1  0
  6  1  1  0
  7  6  1  0
  6  8  1  0
  8  9  1  0
  9 10  1  0
  9 11  2  0
 10 12  1  0
 12 13  1  0
 13 14  2  0
 15 13  1  0
 14 16  1  0
 14 17  1  0
 18 15  2  0
 16 19  1  0
 16 20  2  0
 17 21  2  0
 21 18  1  0
  4 22  2  0
  4 23  1  0
 24 23  1  0
 24 25  1  0
 25 26  1  0
 25 27  1  0
 26 28  1  0
 27 29  1  0
 27 30  1  0
 30 28  1  0
 28 31  1  0
 30 32  1  0
 33 31  1  0
 34 31  1  0
 35 33  2  0
 33 36  1  0
 37 34  2  0
 38 35  1  0
 36 39  2  0
 36 37  1  0
 40 38  2  0
 40 39  1  0
 39 41  1  0
  6 42  1  6
  7 43  1  0
  7 44  1  0
  8 45  1  0
  8 46  1  0
 12 47  1  0
 12 48  1  0
 15 49  1  0
 17 50  1  0
 18 51  1  0
 21 52  1  0
 24 53  1  0
 24 54  1  0
 25 55  1  0
 27 56  1  0
 28 57  1  0
 29 58  1  0
 30 59  1  0
 32 60  1  0
 34 61  1  0
 38 62  1  0
 41 63  1  0
 41 64  1  0
M  CHG  3   5  -1  16   1  19  -1
M  END
>  <EmbedRMS>  (193) 
0.08947736769032351

$$$$

     RDKit          3D

 64 67  0  0  0  0  0  0  0  0999 V2000
   10.2847   43.7714   33.8043 C   0  0  0  0  0  0  0  0  0  0  0  0
   11.4064   43.5876   34.3624 O   0  0  0  0  0  0  0  0  0  0  0  0
    9.3650   42.7313   33.7015 O   0  0  0  0  0  0  0  0  0  0  0  0
    9.8852   41.2344   34.2844 P   0  0  0  0  0  5  0  0  0  0  0  0
   10.3716   41.4698   35.8729 O   0  0  0  0  0  1  0  0  0  0  0  0
    9.9625   45.1100   33.2352 C   0  0  2  0  0  0  0  0  0  0  0  0
   11.0661   46.0376   33.4907 N   0  0  0  0  0  0  0  0  0  0  0  0
    8.6350   45.6617   33.8022 C   0  0  0  0  0  0  0  0  0  0  0  0
    8.5714   45.7037   35.3039 C   0  0  0  0  0  0  0  0  0  0  0  0
    7.3289   45.5577   35.9301 O   0  0  0  0  0  0  0  0  0  0  0  0
    9.6103   45.9218   35.9865 O   0  0  0  0  0  0  0  0  0  0  0  0
    7.1763   45.4459   37.3443 C   0  0  0  0  0  0  0  0  0  0  0  0
    7.5839   44.0700   37.8251 C   0  0  0  0  0  0  0  0  0  0  0  0
    8.2585   43.8693   39.0587 C   0  0  0  0  0  0  0  0  0  0  0  0
    7.2544   42.9503   37.0369 C   0  0  0  0  0  0  0  0  0  0  0  0
    8.5261   44.9535   39.9627 N   0  0  0  0  0  4  0  0  0  0  0  0
    8.6591   42.5713   39.4198 C   0  0  0  0  0  0  0  0  0  0  0  0
    7.6340   41.6661   37.4283 C   0  0  0  0  0  0  0  0  0  0  0  0
    9.6737   44.9445   40.7216 O   0  0  0  0  0  1  0  0  0  0  0  0
    7.6309   45.7796   40.2356 O   0  0  0  0  0  0  0  0  0  0  0  0
    8.3483   41.4785   38.6097 C   0  0  0  0  0  0  0  0  0  0  0  0
    8.8079   40.1911   34.2110 O   0  0  0  0  0  0  0  0  0  0  0  0
   11.2364   40.7903   33.3676 O   0  0  0  0  0  0  0  0  0  0  0  0
   10.9149   40.6889   31.9947 C   0  0  0  0  0  0  0  0  0  0  0  0
   11.5248   39.3873   31.4364 C   0  0  0  0  0  0  0  0  0  0  0  0
   12.7482   39.0881   32.0805 O   0  0  0  0  0  0  0  0  0  0  0  0
   10.6099   38.1908   31.6470 C   0  0  0  0  0  0  0  0  0  0  0  0
   12.9347   37.6810   32.0293 C   0  0  0  0  0  0  0  0  0  0  0  0
    9.6125   38.0872   30.6547 O   0  0  0  0  0  0  0  0  0  0  0  0
   11.5766   37.0133   31.7026 C   0  0  0  0  0  0  0  0  0  0  0  0
   13.4901   37.2166   33.3237 N   0  0  0  0  0  0  0  0  0  0  0  0
   11.6322   36.3231   30.4741 O   0  0  0  0  0  0  0  0  0  0  0  0
   14.4762   36.3267   33.5728 C   0  0  0  0  0  0  0  0  0  0  0  0
   13.1179   37.6308   34.5689 C   0  0  0  0  0  0  0  0  0  0  0  0
   15.2065   35.6136   32.6738 N   0  0  0  0  0  0  0  0  0  0  0  0
   14.6735   36.2272   34.9182 C   0  0  0  0  0  0  0  0  0  0  0  0
   13.8228   37.0453   35.5784 N   0  0  0  0  0  0  0  0  0  0  0  0
   16.1639   34.7593   33.1547 C   0  0  0  0  0  0  0  0  0  0  0  0
   15.6518   35.3491   35.4130 C   0  0  0  0  0  0  0  0  0  0  0  0
   16.3794   34.6309   34.5042 N   0  0  0  0  0  0  0  0  0  0  0  0
   15.9004   35.1933   36.8089 N   0  0  0  0  0  0  0  0  0  0  0  0
    9.8414   44.9914   32.1347 H   0  0  0  0  0  0  0  0  0  0  0  0
   10.8157   46.9705   33.0892 H   0  0  0  0  0  0  0  0  0  0  0  0
   11.9013   45.7164   32.9476 H   0  0  0  0  0  0  0  0  0  0  0  0
    7.7999   45.0271   33.4331 H   0  0  0  0  0  0  0  0  0  0  0  0
    8.4578   46.6862   33.4110 H   0  0  0  0  0  0  0  0  0  0  0  0
    7.7682   46.2505   37.8280 H   0  0  0  0  0  0  0  0  0  0  0  0
    6.1081   45.6050   37.6003 H   0  0  0  0  0  0  0  0  0  0  0  0
    6.7093   43.0709   36.1089 H   0  0  0  0  0  0  0  0  0  0  0  0
    9.1865   42.4009   40.3498 H   0  0  0  0  0  0  0  0  0  0  0  0
    7.3830   40.8155   36.8079 H   0  0  0  0  0  0  0  0  0  0  0  0
    8.6499   40.4821   38.9061 H   0  0  0  0  0  0  0  0  0  0  0  0
   11.3830   41.5507   31.4726 H   0  0  0  0  0  0  0  0  0  0  0  0
    9.8248   40.7197   31.7580 H   0  0  0  0  0  0  0  0  0  0  0  0
   11.7270   39.5286   30.3501 H   0  0  0  0  0  0  0  0  0  0  0  0
   10.1120   38.2731   32.6390 H   0  0  0  0  0  0  0  0  0  0  0  0
   13.6684   37.4595   31.2225 H   0  0  0  0  0  0  0  0  0  0  0  0
   10.0512   38.1108   29.7648 H   0  0  0  0  0  0  0  0  0  0  0  0
   11.2801   36.3128   32.5195 H   0  0  0  0  0  0  0  0  0  0  0  0
   10.8626   35.6960   30.4646 H   0  0  0  0  0  0  0  0  0  0  0  0
   12.3355   38.3582   34.7446 H   0  0  0  0  0  0  0  0  0  0  0  0
   16.7574   34.1788   32.4619 H   0  0  0  0  0  0  0  0  0  0  0  0
   16.6364   34.5315   37.1415 H   0  0  0  0  0  0  0  0  0  0  0  0
   15.3531   35.7356   37.5137 H   0  0  0  0  0  0  0  0  0  0  0  0
  1  2  2  0
  1  3  1  0
  3  4  1  0
  4  5  1  0
  6  1  1  0
  7  6  1  0
  6  8  1  0
  8  9  1  0
  9 10  1  0
  9 11  2  0
 10 12  1  0
 12 13  1  0
 13 14  2  0
 15 13  1  0
 14 16  1  0
 14 17  1  0
 18 15  2  0
 16 19  1  0
 16 20  2  0
 17 21  2  0
 21 18  1  0
  4 22  2  0
  4 23  1  0
 24 23  1  0
 24 25  1  0
 25 26  1  0
 25 27  1  0
 26 28  1  0
 27 29  1  0
 27 30  1  0
 30 28  1  0
 28 31  1  0
 30 32  1  0
 33 31  1  0
 34 31  1  0
 35 33  2  0
 33 36  1  0
 37 34  2  0
 38 35  1  0
 36 39  2  0
 36 37  1  0
 40 38  2  0
 40 39  1  0
 39 41  1  0
  6 42  1  6
  7 43  1  0
  7 44  1  0
  8 45  1  0
  8 46  1  0
 12 47  1  0
 12 48  1  0
 15 49  1  0
 17 50  1  0
 18 51  1  0
 21 52  1  0
 24 53  1  0
 24 54  1  0
 25 55  1  0
 27 56  1  0
 28 57  1  0
 29 58  1  0
 30 59  1  0
 32 60  1  0
 34 61  1  0
 38 62  1  0
 41 63  1  0
 41 64  1  0
M  CHG  3   5  -1  16   1  19  -1
M  END
>  <EmbedRMS>  (194) 
0.08770217045693103

$$$$

     RDKit          3D

 64 67  0  0  0  0  0  0  0  0999 V2000
   10.2847   43.7726   33.8069 C   0  0  0  0  0  0  0  0  0  0  0  0
   11.4104   43.5874   34.3563 O   0  0  0  0  0  0  0  0  0  0  0  0
    9.3661   42.7316   33.7019 O   0  0  0  0  0  0  0  0  0  0  0  0
    9.8849   41.2344   34.2850 P   0  0  0  0  0  5  0  0  0  0  0  0
   10.3658   41.4698   35.8753 O   0  0  0  0  0  1  0  0  0  0  0  0
    9.9585   45.1106   33.2431 C   0  0  2  0  0  0  0  0  0  0  0  0
   11.0673   46.0369   33.4852 N   0  0  0  0  0  0  0  0  0  0  0  0
    8.6188   45.6573   33.7865 C   0  0  0  0  0  0  0  0  0  0  0  0
    8.6069   45.8044   35.2793 C   0  0  0  0  0  0  0  0  0  0  0  0
    8.9983   47.0166   35.8536 O   0  0  0  0  0  0  0  0  0  0  0  0
    8.2721   44.8275   36.0039 O   0  0  0  0  0  0  0  0  0  0  0  0
    9.0545   47.2173   37.2613 C   0  0  0  0  0  0  0  0  0  0  0  0
    9.5237   48.6196   37.5472 C   0  0  0  0  0  0  0  0  0  0  0  0
    8.6331   49.7266   37.5802 C   0  0  0  0  0  0  0  0  0  0  0  0
   10.8944   48.8324   37.7798 C   0  0  0  0  0  0  0  0  0  0  0  0
    7.2291   49.5869   37.2955 N   0  0  0  0  0  4  0  0  0  0  0  0
    9.1366   50.9987   37.9059 C   0  0  0  0  0  0  0  0  0  0  0  0
   11.3755   50.1065   38.0834 C   0  0  0  0  0  0  0  0  0  0  0  0
    6.3217   50.4380   37.8835 O   0  0  0  0  0  1  0  0  0  0  0  0
    6.8358   48.8264   36.3876 O   0  0  0  0  0  0  0  0  0  0  0  0
   10.4972   51.1860   38.1542 C   0  0  0  0  0  0  0  0  0  0  0  0
    8.8076   40.1913   34.2091 O   0  0  0  0  0  0  0  0  0  0  0  0
   11.2367   40.7909   33.3690 O   0  0  0  0  0  0  0  0  0  0  0  0
   10.9151   40.6898   31.9961 C   0  0  0  0  0  0  0  0  0  0  0  0
   11.5268   39.3899   31.4375 C   0  0  0  0  0  0  0  0  0  0  0  0
   12.7506   39.0917   32.0840 O   0  0  0  0  0  0  0  0  0  0  0  0
   10.6121   38.1915   31.6452 C   0  0  0  0  0  0  0  0  0  0  0  0
   12.9428   37.6853   32.0295 C   0  0  0  0  0  0  0  0  0  0  0  0
    9.6069   38.0858   30.6603 O   0  0  0  0  0  0  0  0  0  0  0  0
   11.5845   37.0186   31.6880 C   0  0  0  0  0  0  0  0  0  0  0  0
   13.4899   37.2164   33.3250 N   0  0  0  0  0  0  0  0  0  0  0  0
   11.6201   36.3063   30.4693 O   0  0  0  0  0  0  0  0  0  0  0  0
   14.4759   36.3263   33.5738 C   0  0  0  0  0  0  0  0  0  0  0  0
   13.1176   37.6307   34.5699 C   0  0  0  0  0  0  0  0  0  0  0  0
   15.2065   35.6139   32.6746 N   0  0  0  0  0  0  0  0  0  0  0  0
   14.6731   36.2267   34.9191 C   0  0  0  0  0  0  0  0  0  0  0  0
   13.8224   37.0450   35.5792 N   0  0  0  0  0  0  0  0  0  0  0  0
   16.1640   34.7596   33.1551 C   0  0  0  0  0  0  0  0  0  0  0  0
   15.6517   35.3489   35.4136 C   0  0  0  0  0  0  0  0  0  0  0  0
   16.3795   34.6310   34.5045 N   0  0  0  0  0  0  0  0  0  0  0  0
   15.9006   35.1931   36.8094 N   0  0  0  0  0  0  0  0  0  0  0  0
    9.8507   44.9832   32.1436 H   0  0  0  0  0  0  0  0  0  0  0  0
   11.1624   46.2270   34.5093 H   0  0  0  0  0  0  0  0  0  0  0  0
   10.8517   46.9475   33.0178 H   0  0  0  0  0  0  0  0  0  0  0  0
    8.4119   46.6469   33.3251 H   0  0  0  0  0  0  0  0  0  0  0  0
    7.7911   44.9808   33.4802 H   0  0  0  0  0  0  0  0  0  0  0  0
    8.0566   47.0399   37.7166 H   0  0  0  0  0  0  0  0  0  0  0  0
    9.7521   46.4768   37.7114 H   0  0  0  0  0  0  0  0  0  0  0  0
   11.5936   48.0060   37.7367 H   0  0  0  0  0  0  0  0  0  0  0  0
    8.4759   51.8554   37.9459 H   0  0  0  0  0  0  0  0  0  0  0  0
   12.4314   50.2561   38.2683 H   0  0  0  0  0  0  0  0  0  0  0  0
   10.8723   52.1727   38.3933 H   0  0  0  0  0  0  0  0  0  0  0  0
    9.8249   40.7189   31.7591 H   0  0  0  0  0  0  0  0  0  0  0  0
   11.3818   41.5527   31.4744 H   0  0  0  0  0  0  0  0  0  0  0  0
   11.7317   39.5339   30.3521 H   0  0  0  0  0  0  0  0  0  0  0  0
   10.1213   38.2681   32.6413 H   0  0  0  0  0  0  0  0  0  0  0  0
   13.6882   37.4710   31.2319 H   0  0  0  0  0  0  0  0  0  0  0  0
   10.0256   38.1751   29.7656 H   0  0  0  0  0  0  0  0  0  0  0  0
   11.2796   36.3123   32.4916 H   0  0  0  0  0  0  0  0  0  0  0  0
   11.9872   36.9100   29.7715 H   0  0  0  0  0  0  0  0  0  0  0  0
   12.3365   38.3596   34.7454 H   0  0  0  0  0  0  0  0  0  0  0  0
   16.7576   34.1794   32.4622 H   0  0  0  0  0  0  0  0  0  0  0  0
   16.6368   34.5316   37.1418 H   0  0  0  0  0  0  0  0  0  0  0  0
   15.3532   35.7351   37.5143 H   0  0  0  0  0  0  0  0  0  0  0  0
  1  2  2  0
  1  3  1  0
  3  4  1  0
  4  5  1  0
  6  1  1  0
  7  6  1  0
  6  8  1  0
  8  9  1  0
  9 10  1  0
  9 11  2  0
 10 12  1  0
 12 13  1  0
 13 14  2  0
 15 13  1  0
 14 16  1  0
 14 17  1  0
 18 15  2  0
 16 19  1  0
 16 20  2  0
 17 21  2  0
 21 18  1  0
  4 22  2  0
  4 23  1  0
 24 23  1  0
 24 25  1  0
 25 26  1  0
 25 27  1  0
 26 28  1  0
 27 29  1  0
 27 30  1  0
 30 28  1  0
 28 31  1  0
 30 32  1  0
 33 31  1  0
 34 31  1  0
 35 33  2  0
 33 36  1  0
 37 34  2  0
 38 35  1  0
 36 39  2  0
 36 37  1  0
 40 38  2  0
 40 39  1  0
 39 41  1  0
  6 42  1  6
  7 43  1  0
  7 44  1  0
  8 45  1  0
  8 46  1  0
 12 47  1  0
 12 48  1  0
 15 49  1  0
 17 50  1  0
 18 51  1  0
 21 52  1  0
 24 53  1  0
 24 54  1  0
 25 55  1  0
 27 56  1  0
 28 57  1  0
 29 58  1  0
 30 59  1  0
 32 60  1  0
 34 61  1  0
 38 62  1  0
 41 63  1  0
 41 64  1  0
M  CHG  3   5  -1  16   1  19  -1
M  END
>  <EmbedRMS>  (195) 
0.08686973722435033

$$$$

     RDKit          3D

 64 67  0  0  0  0  0  0  0  0999 V2000
   10.2830   43.7754   33.8080 C   0  0  0  0  0  0  0  0  0  0  0  0
   11.4086   43.5914   34.3581 O   0  0  0  0  0  0  0  0  0  0  0  0
    9.3667   42.7319   33.7018 O   0  0  0  0  0  0  0  0  0  0  0  0
    9.8860   41.2347   34.2846 P   0  0  0  0  0  5  0  0  0  0  0  0
   10.3662   41.4695   35.8752 O   0  0  0  0  0  1  0  0  0  0  0  0
    9.9543   45.1111   33.2422 C   0  0  2  0  0  0  0  0  0  0  0  0
   11.0718   46.0274   33.4851 N   0  0  0  0  0  0  0  0  0  0  0  0
    8.6395   45.6442   33.8494 C   0  0  0  0  0  0  0  0  0  0  0  0
    8.2173   46.9249   33.1994 C   0  0  0  0  0  0  0  0  0  0  0  0
    7.7387   46.9012   31.8870 O   0  0  0  0  0  0  0  0  0  0  0  0
    8.3167   48.0131   33.8296 O   0  0  0  0  0  0  0  0  0  0  0  0
    7.3200   48.0751   31.1982 C   0  0  0  0  0  0  0  0  0  0  0  0
    6.8323   47.7099   29.8182 C   0  0  0  0  0  0  0  0  0  0  0  0
    5.8265   46.7279   29.6068 C   0  0  0  0  0  0  0  0  0  0  0  0
    7.4191   48.3417   28.7057 C   0  0  0  0  0  0  0  0  0  0  0  0
    5.1734   46.0598   30.7022 N   0  0  0  0  0  4  0  0  0  0  0  0
    5.4681   46.3881   28.2890 C   0  0  0  0  0  0  0  0  0  0  0  0
    7.0369   48.0001   27.4080 C   0  0  0  0  0  0  0  0  0  0  0  0
    4.8171   46.7518   31.8361 O   0  0  0  0  0  1  0  0  0  0  0  0
    4.7793   44.8824   30.5708 O   0  0  0  0  0  0  0  0  0  0  0  0
    6.0671   47.0220   27.1999 C   0  0  0  0  0  0  0  0  0  0  0  0
    8.8089   40.1914   34.2081 O   0  0  0  0  0  0  0  0  0  0  0  0
   11.2385   40.7916   33.3693 O   0  0  0  0  0  0  0  0  0  0  0  0
   10.9186   40.6907   31.9960 C   0  0  0  0  0  0  0  0  0  0  0  0
   11.5174   39.3824   31.4412 C   0  0  0  0  0  0  0  0  0  0  0  0
   12.7494   39.0893   32.0757 O   0  0  0  0  0  0  0  0  0  0  0  0
   10.6035   38.1900   31.6659 C   0  0  0  0  0  0  0  0  0  0  0  0
   12.9400   37.6834   32.0276 C   0  0  0  0  0  0  0  0  0  0  0  0
    9.6376   38.0785   30.6474 O   0  0  0  0  0  0  0  0  0  0  0  0
   11.5803   37.0204   31.6937 C   0  0  0  0  0  0  0  0  0  0  0  0
   13.4902   37.2177   33.3237 N   0  0  0  0  0  0  0  0  0  0  0  0
   11.6118   36.3193   30.4680 O   0  0  0  0  0  0  0  0  0  0  0  0
   14.4759   36.3271   33.5731 C   0  0  0  0  0  0  0  0  0  0  0  0
   13.1176   37.6317   34.5688 C   0  0  0  0  0  0  0  0  0  0  0  0
   15.2064   35.6141   32.6742 N   0  0  0  0  0  0  0  0  0  0  0  0
   14.6729   36.2274   34.9184 C   0  0  0  0  0  0  0  0  0  0  0  0
   13.8221   37.0457   35.5783 N   0  0  0  0  0  0  0  0  0  0  0  0
   16.1637   34.7596   33.1549 C   0  0  0  0  0  0  0  0  0  0  0  0
   15.6514   35.3493   35.4132 C   0  0  0  0  0  0  0  0  0  0  0  0
   16.3791   34.6312   34.5044 N   0  0  0  0  0  0  0  0  0  0  0  0
   15.9001   35.1935   36.8091 N   0  0  0  0  0  0  0  0  0  0  0  0
    9.8249   44.9828   32.1443 H   0  0  0  0  0  0  0  0  0  0  0  0
   11.0789   46.3191   34.4904 H   0  0  0  0  0  0  0  0  0  0  0  0
   10.9360   46.8892   32.9085 H   0  0  0  0  0  0  0  0  0  0  0  0
    8.7548   45.7933   34.9459 H   0  0  0  0  0  0  0  0  0  0  0  0
    7.8264   44.9020   33.6953 H   0  0  0  0  0  0  0  0  0  0  0  0
    8.1773   48.7817   31.1436 H   0  0  0  0  0  0  0  0  0  0  0  0
    6.5077   48.5838   31.7587 H   0  0  0  0  0  0  0  0  0  0  0  0
    8.1843   49.0964   28.8400 H   0  0  0  0  0  0  0  0  0  0  0  0
    4.7080   45.6395   28.1042 H   0  0  0  0  0  0  0  0  0  0  0  0
    7.4987   48.4915   26.5612 H   0  0  0  0  0  0  0  0  0  0  0  0
    5.7754   46.7563   26.1919 H   0  0  0  0  0  0  0  0  0  0  0  0
   11.3991   41.5455   31.4737 H   0  0  0  0  0  0  0  0  0  0  0  0
    9.8306   40.7396   31.7563 H   0  0  0  0  0  0  0  0  0  0  0  0
   11.6989   39.5091   30.3489 H   0  0  0  0  0  0  0  0  0  0  0  0
   10.1130   38.2589   32.6664 H   0  0  0  0  0  0  0  0  0  0  0  0
   13.6800   37.4628   31.2265 H   0  0  0  0  0  0  0  0  0  0  0  0
    8.8953   38.6909   30.8890 H   0  0  0  0  0  0  0  0  0  0  0  0
   11.2830   36.3060   32.4929 H   0  0  0  0  0  0  0  0  0  0  0  0
   11.8858   36.9590   29.7593 H   0  0  0  0  0  0  0  0  0  0  0  0
   12.3360   38.3600   34.7442 H   0  0  0  0  0  0  0  0  0  0  0  0
   16.7572   34.1792   32.4621 H   0  0  0  0  0  0  0  0  0  0  0  0
   15.3528   35.7357   37.5140 H   0  0  0  0  0  0  0  0  0  0  0  0
   16.6362   34.5318   37.1416 H   0  0  0  0  0  0  0  0  0  0  0  0
  1  2  2  0
  1  3  1  0
  3  4  1  0
  4  5  1  0
  6  1  1  0
  7  6  1  0
  6  8  1  0
  8  9  1  0
  9 10  1  0
  9 11  2  0
 10 12  1  0
 12 13  1  0
 13 14  2  0
 15 13  1  0
 14 16  1  0
 14 17  1  0
 18 15  2  0
 16 19  1  0
 16 20  2  0
 17 21  2  0
 21 18  1  0
  4 22  2  0
  4 23  1  0
 24 23  1  0
 24 25  1  0
 25 26  1  0
 25 27  1  0
 26 28  1  0
 27 29  1  0
 27 30  1  0
 30 28  1  0
 28 31  1  0
 30 32  1  0
 33 31  1  0
 34 31  1  0
 35 33  2  0
 33 36  1  0
 37 34  2  0
 38 35  1  0
 36 39  2  0
 36 37  1  0
 40 38  2  0
 40 39  1  0
 39 41  1  0
  6 42  1  6
  7 43  1  0
  7 44  1  0
  8 45  1  0
  8 46  1  0
 12 47  1  0
 12 48  1  0
 15 49  1  0
 17 50  1  0
 18 51  1  0
 21 52  1  0
 24 53  1  0
 24 54  1  0
 25 55  1  0
 27 56  1  0
 28 57  1  0
 29 58  1  0
 30 59  1  0
 32 60  1  0
 34 61  1  0
 38 62  1  0
 41 63  1  0
 41 64  1  0
M  CHG  3   5  -1  16   1  19  -1
M  END
>  <EmbedRMS>  (196) 
0.08803140476720285

$$$$

     RDKit          3D

 64 67  0  0  0  0  0  0  0  0999 V2000
   10.2848   43.7726   33.8070 C   0  0  0  0  0  0  0  0  0  0  0  0
   11.4104   43.5874   34.3563 O   0  0  0  0  0  0  0  0  0  0  0  0
    9.3664   42.7314   33.7015 O   0  0  0  0  0  0  0  0  0  0  0  0
    9.8852   41.2342   34.2845 P   0  0  0  0  0  5  0  0  0  0  0  0
   10.3660   41.4696   35.8748 O   0  0  0  0  0  1  0  0  0  0  0  0
    9.9582   45.1107   33.2440 C   0  0  2  0  0  0  0  0  0  0  0  0
   11.0677   46.0367   33.4844 N   0  0  0  0  0  0  0  0  0  0  0  0
    8.6198   45.6579   33.7900 C   0  0  0  0  0  0  0  0  0  0  0  0
    8.6107   45.8054   35.2828 C   0  0  0  0  0  0  0  0  0  0  0  0
    9.0068   47.0167   35.8558 O   0  0  0  0  0  0  0  0  0  0  0  0
    8.2729   44.8303   36.0083 O   0  0  0  0  0  0  0  0  0  0  0  0
    9.0525   47.2237   37.2638 C   0  0  0  0  0  0  0  0  0  0  0  0
    9.4997   48.6346   37.5558 C   0  0  0  0  0  0  0  0  0  0  0  0
    8.8237   49.7692   37.0266 C   0  0  0  0  0  0  0  0  0  0  0  0
   10.6475   48.8275   38.3472 C   0  0  0  0  0  0  0  0  0  0  0  0
    7.6379   49.6478   36.2187 N   0  0  0  0  0  4  0  0  0  0  0  0
    9.3388   51.0526   37.2831 C   0  0  0  0  0  0  0  0  0  0  0  0
   11.1309   50.1114   38.6015 C   0  0  0  0  0  0  0  0  0  0  0  0
    7.3570   50.5989   35.2647 O   0  0  0  0  0  1  0  0  0  0  0  0
    6.7743   48.7842   36.4747 O   0  0  0  0  0  0  0  0  0  0  0  0
   10.4807   51.2212   38.0670 C   0  0  0  0  0  0  0  0  0  0  0  0
    8.8077   40.1912   34.2088 O   0  0  0  0  0  0  0  0  0  0  0  0
   11.2370   40.7902   33.3684 O   0  0  0  0  0  0  0  0  0  0  0  0
   10.9157   40.6889   31.9952 C   0  0  0  0  0  0  0  0  0  0  0  0
   11.5251   39.3873   31.4366 C   0  0  0  0  0  0  0  0  0  0  0  0
   12.7485   39.0880   32.0804 O   0  0  0  0  0  0  0  0  0  0  0  0
   10.6100   38.1909   31.6471 C   0  0  0  0  0  0  0  0  0  0  0  0
   12.9348   37.6808   32.0292 C   0  0  0  0  0  0  0  0  0  0  0  0
    9.6126   38.0874   30.6546 O   0  0  0  0  0  0  0  0  0  0  0  0
   11.5767   37.0133   31.7025 C   0  0  0  0  0  0  0  0  0  0  0  0
   13.4901   37.2165   33.3236 N   0  0  0  0  0  0  0  0  0  0  0  0
   11.6322   36.3231   30.4741 O   0  0  0  0  0  0  0  0  0  0  0  0
   14.4762   36.3266   33.5727 C   0  0  0  0  0  0  0  0  0  0  0  0
   13.1179   37.6307   34.5689 C   0  0  0  0  0  0  0  0  0  0  0  0
   15.2065   35.6135   32.6738 N   0  0  0  0  0  0  0  0  0  0  0  0
   14.6736   36.2272   34.9182 C   0  0  0  0  0  0  0  0  0  0  0  0
   13.8228   37.0453   35.5783 N   0  0  0  0  0  0  0  0  0  0  0  0
   16.1640   34.7593   33.1547 C   0  0  0  0  0  0  0  0  0  0  0  0
   15.6518   35.3491   35.4131 C   0  0  0  0  0  0  0  0  0  0  0  0
   16.3795   34.6309   34.5042 N   0  0  0  0  0  0  0  0  0  0  0  0
   15.9004   35.1933   36.8089 N   0  0  0  0  0  0  0  0  0  0  0  0
    9.8484   44.9837   32.1446 H   0  0  0  0  0  0  0  0  0  0  0  0
   11.1653   46.2257   34.5084 H   0  0  0  0  0  0  0  0  0  0  0  0
   10.8512   46.9477   33.0183 H   0  0  0  0  0  0  0  0  0  0  0  0
    8.4122   46.6476   33.3289 H   0  0  0  0  0  0  0  0  0  0  0  0
    7.7912   44.9816   33.4853 H   0  0  0  0  0  0  0  0  0  0  0  0
    9.7513   46.4831   37.7115 H   0  0  0  0  0  0  0  0  0  0  0  0
    8.0529   47.0463   37.7138 H   0  0  0  0  0  0  0  0  0  0  0  0
   11.1795   47.9809   38.7636 H   0  0  0  0  0  0  0  0  0  0  0  0
    8.8440   51.9305   36.8873 H   0  0  0  0  0  0  0  0  0  0  0  0
   12.0163   50.2452   39.2096 H   0  0  0  0  0  0  0  0  0  0  0  0
   10.8604   52.2158   38.2625 H   0  0  0  0  0  0  0  0  0  0  0  0
   11.3842   41.5506   31.4733 H   0  0  0  0  0  0  0  0  0  0  0  0
    9.8257   40.7202   31.7580 H   0  0  0  0  0  0  0  0  0  0  0  0
   11.7272   39.5287   30.3503 H   0  0  0  0  0  0  0  0  0  0  0  0
   10.1121   38.2731   32.6390 H   0  0  0  0  0  0  0  0  0  0  0  0
   13.6685   37.4593   31.2224 H   0  0  0  0  0  0  0  0  0  0  0  0
   10.0514   38.1110   29.7648 H   0  0  0  0  0  0  0  0  0  0  0  0
   11.2801   36.3128   32.5195 H   0  0  0  0  0  0  0  0  0  0  0  0
   10.8625   35.6960   30.4645 H   0  0  0  0  0  0  0  0  0  0  0  0
   12.3356   38.3581   34.7445 H   0  0  0  0  0  0  0  0  0  0  0  0
   16.7575   34.1787   32.4619 H   0  0  0  0  0  0  0  0  0  0  0  0
   15.3531   35.7355   37.5138 H   0  0  0  0  0  0  0  0  0  0  0  0
   16.6364   34.5315   37.1415 H   0  0  0  0  0  0  0  0  0  0  0  0
  1  2  2  0
  1  3  1  0
  3  4  1  0
  4  5  1  0
  6  1  1  0
  7  6  1  0
  6  8  1  0
  8  9  1  0
  9 10  1  0
  9 11  2  0
 10 12  1  0
 12 13  1  0
 13 14  2  0
 15 13  1  0
 14 16  1  0
 14 17  1  0
 18 15  2  0
 16 19  1  0
 16 20  2  0
 17 21  2  0
 21 18  1  0
  4 22  2  0
  4 23  1  0
 24 23  1  0
 24 25  1  0
 25 26  1  0
 25 27  1  0
 26 28  1  0
 27 29  1  0
 27 30  1  0
 30 28  1  0
 28 31  1  0
 30 32  1  0
 33 31  1  0
 34 31  1  0
 35 33  2  0
 33 36  1  0
 37 34  2  0
 38 35  1  0
 36 39  2  0
 36 37  1  0
 40 38  2  0
 40 39  1  0
 39 41  1  0
  6 42  1  6
  7 43  1  0
  7 44  1  0
  8 45  1  0
  8 46  1  0
 12 47  1  0
 12 48  1  0
 15 49  1  0
 17 50  1  0
 18 51  1  0
 21 52  1  0
 24 53  1  0
 24 54  1  0
 25 55  1  0
 27 56  1  0
 28 57  1  0
 29 58  1  0
 30 59  1  0
 32 60  1  0
 34 61  1  0
 38 62  1  0
 41 63  1  0
 41 64  1  0
M  CHG  3   5  -1  16   1  19  -1
M  END
>  <EmbedRMS>  (197) 
0.08802269293623474

$$$$

     RDKit          3D

 64 67  0  0  0  0  0  0  0  0999 V2000
   10.2812   43.7757   33.8089 C   0  0  0  0  0  0  0  0  0  0  0  0
   11.4059   43.5926   34.3614 O   0  0  0  0  0  0  0  0  0  0  0  0
    9.3672   42.7304   33.7045 O   0  0  0  0  0  0  0  0  0  0  0  0
    9.8870   41.2336   34.2855 P   0  0  0  0  0  5  0  0  0  0  0  0
   10.3674   41.4682   35.8759 O   0  0  0  0  0  1  0  0  0  0  0  0
    9.9660   45.1074   33.2173 C   0  0  2  0  0  0  0  0  0  0  0  0
   11.0660   46.0313   33.4989 N   0  0  0  0  0  0  0  0  0  0  0  0
    8.6276   45.6743   33.7461 C   0  0  0  0  0  0  0  0  0  0  0  0
    7.4259   44.9156   33.2562 C   0  0  0  0  0  0  0  0  0  0  0  0
    7.4808   44.2131   32.0461 O   0  0  0  0  0  0  0  0  0  0  0  0
    6.3560   44.9579   33.9224 O   0  0  0  0  0  0  0  0  0  0  0  0
    6.3611   43.5388   31.4777 C   0  0  0  0  0  0  0  0  0  0  0  0
    5.3809   44.5314   30.8988 C   0  0  0  0  0  0  0  0  0  0  0  0
    5.7821   45.5412   29.9830 C   0  0  0  0  0  0  0  0  0  0  0  0
    4.0361   44.4695   31.3077 C   0  0  0  0  0  0  0  0  0  0  0  0
    7.1387   45.6457   29.5147 N   0  0  0  0  0  4  0  0  0  0  0  0
    4.8305   46.4735   29.5320 C   0  0  0  0  0  0  0  0  0  0  0  0
    3.1049   45.3951   30.8352 C   0  0  0  0  0  0  0  0  0  0  0  0
    7.8516   44.5192   29.1755 O   0  0  0  0  0  1  0  0  0  0  0  0
    7.6292   46.7658   29.2609 O   0  0  0  0  0  0  0  0  0  0  0  0
    3.5023   46.3976   29.9528 C   0  0  0  0  0  0  0  0  0  0  0  0
    8.8093   40.1909   34.2088 O   0  0  0  0  0  0  0  0  0  0  0  0
   11.2388   40.7913   33.3685 O   0  0  0  0  0  0  0  0  0  0  0  0
   10.9179   40.6890   31.9952 C   0  0  0  0  0  0  0  0  0  0  0  0
   11.5175   39.3802   31.4402 C   0  0  0  0  0  0  0  0  0  0  0  0
   12.7479   39.0876   32.0757 O   0  0  0  0  0  0  0  0  0  0  0  0
   10.6049   38.1876   31.6659 C   0  0  0  0  0  0  0  0  0  0  0  0
   12.9357   37.6816   32.0295 C   0  0  0  0  0  0  0  0  0  0  0  0
    9.6419   38.0739   30.6448 O   0  0  0  0  0  0  0  0  0  0  0  0
   11.5761   37.0159   31.7050 C   0  0  0  0  0  0  0  0  0  0  0  0
   13.4909   37.2179   33.3243 N   0  0  0  0  0  0  0  0  0  0  0  0
   11.6100   36.3399   30.4684 O   0  0  0  0  0  0  0  0  0  0  0  0
   14.4765   36.3270   33.5727 C   0  0  0  0  0  0  0  0  0  0  0  0
   13.1189   37.6308   34.5701 C   0  0  0  0  0  0  0  0  0  0  0  0
   15.2064   35.6142   32.6731 N   0  0  0  0  0  0  0  0  0  0  0  0
   14.6745   36.2266   34.9180 C   0  0  0  0  0  0  0  0  0  0  0  0
   13.8242   37.0442   35.5792 N   0  0  0  0  0  0  0  0  0  0  0  0
   16.1640   34.7595   33.1529 C   0  0  0  0  0  0  0  0  0  0  0  0
   15.6523   35.3493   35.4111 C   0  0  0  0  0  0  0  0  0  0  0  0
   16.3803   34.6306   34.5022 N   0  0  0  0  0  0  0  0  0  0  0  0
   15.8934   35.1989   36.8079 N   0  0  0  0  0  0  0  0  0  0  0  0
    9.9033   44.9814   32.1136 H   0  0  0  0  0  0  0  0  0  0  0  0
   10.9165   46.9076   32.9472 H   0  0  0  0  0  0  0  0  0  0  0  0
   11.0496   46.2963   34.5117 H   0  0  0  0  0  0  0  0  0  0  0  0
    8.6361   45.6757   34.8589 H   0  0  0  0  0  0  0  0  0  0  0  0
    8.5175   46.7274   33.4082 H   0  0  0  0  0  0  0  0  0  0  0  0
    5.8890   42.8927   32.2505 H   0  0  0  0  0  0  0  0  0  0  0  0
    6.7124   42.8611   30.6732 H   0  0  0  0  0  0  0  0  0  0  0  0
    3.7058   43.7078   32.0032 H   0  0  0  0  0  0  0  0  0  0  0  0
    5.1159   47.2535   28.8376 H   0  0  0  0  0  0  0  0  0  0  0  0
    2.0737   45.3402   31.1604 H   0  0  0  0  0  0  0  0  0  0  0  0
    2.7789   47.1171   29.5915 H   0  0  0  0  0  0  0  0  0  0  0  0
   11.3974   41.5438   31.4721 H   0  0  0  0  0  0  0  0  0  0  0  0
    9.8297   40.7378   31.7563 H   0  0  0  0  0  0  0  0  0  0  0  0
   11.6999   39.5047   30.3478 H   0  0  0  0  0  0  0  0  0  0  0  0
   10.1099   38.2620   32.6638 H   0  0  0  0  0  0  0  0  0  0  0  0
   13.6691   37.4589   31.2228 H   0  0  0  0  0  0  0  0  0  0  0  0
    8.9004   38.6898   30.8806 H   0  0  0  0  0  0  0  0  0  0  0  0
   11.2684   36.3071   32.5095 H   0  0  0  0  0  0  0  0  0  0  0  0
   12.1424   35.5150   30.6159 H   0  0  0  0  0  0  0  0  0  0  0  0
   12.3367   38.3581   34.7464 H   0  0  0  0  0  0  0  0  0  0  0  0
   16.7570   34.1793   32.4595 H   0  0  0  0  0  0  0  0  0  0  0  0
   16.6262   34.5473   37.1659 H   0  0  0  0  0  0  0  0  0  0  0  0
   16.6328   34.5449   37.1480 H   0  0  0  0  0  0  0  0  0  0  0  0
  1  2  2  0
  1  3  1  0
  3  4  1  0
  4  5  1  0
  6  1  1  0
  7  6  1  0
  6  8  1  0
  8  9  1  0
  9 10  1  0
  9 11  2  0
 10 12  1  0
 12 13  1  0
 13 14  2  0
 15 13  1  0
 14 16  1  0
 14 17  1  0
 18 15  2  0
 16 19  1  0
 16 20  2  0
 17 21  2  0
 21 18  1  0
  4 22  2  0
  4 23  1  0
 24 23  1  0
 24 25  1  0
 25 26  1  0
 25 27  1  0
 26 28  1  0
 27 29  1  0
 27 30  1  0
 30 28  1  0
 28 31  1  0
 30 32  1  0
 33 31  1  0
 34 31  1  0
 35 33  2  0
 33 36  1  0
 37 34  2  0
 38 35  1  0
 36 39  2  0
 36 37  1  0
 40 38  2  0
 40 39  1  0
 39 41  1  0
  6 42  1  6
  7 43  1  0
  7 44  1  0
  8 45  1  0
  8 46  1  0
 12 47  1  0
 12 48  1  0
 15 49  1  0
 17 50  1  0
 18 51  1  0
 21 52  1  0
 24 53  1  0
 24 54  1  0
 25 55  1  0
 27 56  1  0
 28 57  1  0
 29 58  1  0
 30 59  1  0
 32 60  1  0
 34 61  1  0
 38 62  1  0
 41 63  1  0
 41 64  1  0
M  CHG  3   5  -1  16   1  19  -1
M  END
>  <EmbedRMS>  (198) 
0.08953910018692547

$$$$

     RDKit          3D

 64 67  0  0  0  0  0  0  0  0999 V2000
   10.2872   43.7712   33.8024 C   0  0  0  0  0  0  0  0  0  0  0  0
   11.4122   43.5866   34.3531 O   0  0  0  0  0  0  0  0  0  0  0  0
    9.3676   42.7308   33.6992 O   0  0  0  0  0  0  0  0  0  0  0  0
    9.8852   41.2342   34.2840 P   0  0  0  0  0  5  0  0  0  0  0  0
   10.3659   41.4709   35.8743 O   0  0  0  0  0  1  0  0  0  0  0  0
    9.9561   45.1119   33.2480 C   0  0  2  0  0  0  0  0  0  0  0  0
   11.0662   46.0370   33.4870 N   0  0  0  0  0  0  0  0  0  0  0  0
    8.6223   45.6559   33.8091 C   0  0  0  0  0  0  0  0  0  0  0  0
    8.6239   45.7896   35.3043 C   0  0  0  0  0  0  0  0  0  0  0  0
    8.5856   44.6367   36.0961 O   0  0  0  0  0  0  0  0  0  0  0  0
    8.6829   46.9336   35.8317 O   0  0  0  0  0  0  0  0  0  0  0  0
    8.5171   44.6557   37.5195 C   0  0  0  0  0  0  0  0  0  0  0  0
    7.1163   44.9851   37.9746 C   0  0  0  0  0  0  0  0  0  0  0  0
    6.0738   44.0177   37.9821 C   0  0  0  0  0  0  0  0  0  0  0  0
    6.8437   46.2927   38.4159 C   0  0  0  0  0  0  0  0  0  0  0  0
    6.2780   42.6655   37.5303 N   0  0  0  0  0  4  0  0  0  0  0  0
    4.8051   44.3855   38.4654 C   0  0  0  0  0  0  0  0  0  0  0  0
    5.5730   46.6393   38.8758 C   0  0  0  0  0  0  0  0  0  0  0  0
    5.5301   41.6428   38.0673 O   0  0  0  0  0  1  0  0  0  0  0  0
    7.0012   42.4222   36.5431 O   0  0  0  0  0  0  0  0  0  0  0  0
    4.5571   45.6866   38.9048 C   0  0  0  0  0  0  0  0  0  0  0  0
    8.8071   40.1919   34.2093 O   0  0  0  0  0  0  0  0  0  0  0  0
   11.2364   40.7899   33.3667 O   0  0  0  0  0  0  0  0  0  0  0  0
   10.9133   40.6842   31.9938 C   0  0  0  0  0  0  0  0  0  0  0  0
   11.5173   39.3774   31.4397 C   0  0  0  0  0  0  0  0  0  0  0  0
   12.7476   39.0869   32.0757 O   0  0  0  0  0  0  0  0  0  0  0  0
   10.6068   38.1851   31.6657 C   0  0  0  0  0  0  0  0  0  0  0  0
   12.9371   37.6811   32.0291 C   0  0  0  0  0  0  0  0  0  0  0  0
    9.6404   38.0883   30.6475 O   0  0  0  0  0  0  0  0  0  0  0  0
   11.5789   37.0134   31.7045 C   0  0  0  0  0  0  0  0  0  0  0  0
   13.4915   37.2182   33.3239 N   0  0  0  0  0  0  0  0  0  0  0  0
   11.6125   36.3389   30.4674 O   0  0  0  0  0  0  0  0  0  0  0  0
   14.4766   36.3272   33.5730 C   0  0  0  0  0  0  0  0  0  0  0  0
   13.1184   37.6317   34.5690 C   0  0  0  0  0  0  0  0  0  0  0  0
   15.2066   35.6139   32.6741 N   0  0  0  0  0  0  0  0  0  0  0  0
   14.6735   36.2274   34.9184 C   0  0  0  0  0  0  0  0  0  0  0  0
   13.8227   37.0456   35.5785 N   0  0  0  0  0  0  0  0  0  0  0  0
   16.1637   34.7593   33.1548 C   0  0  0  0  0  0  0  0  0  0  0  0
   15.6517   35.3491   35.4132 C   0  0  0  0  0  0  0  0  0  0  0  0
   16.3792   34.6308   34.5043 N   0  0  0  0  0  0  0  0  0  0  0  0
   15.9004   35.1932   36.8091 N   0  0  0  0  0  0  0  0  0  0  0  0
    9.8379   44.9903   32.1489 H   0  0  0  0  0  0  0  0  0  0  0  0
   10.8569   46.9412   33.0044 H   0  0  0  0  0  0  0  0  0  0  0  0
   11.1486   46.2429   34.5094 H   0  0  0  0  0  0  0  0  0  0  0  0
    7.7940   44.9746   33.5173 H   0  0  0  0  0  0  0  0  0  0  0  0
    8.4053   46.6432   33.3459 H   0  0  0  0  0  0  0  0  0  0  0  0
    8.8105   43.6586   37.9094 H   0  0  0  0  0  0  0  0  0  0  0  0
    9.2599   45.3771   37.9261 H   0  0  0  0  0  0  0  0  0  0  0  0
    7.6209   47.0469   38.4145 H   0  0  0  0  0  0  0  0  0  0  0  0
    3.9971   43.6653   38.4862 H   0  0  0  0  0  0  0  0  0  0  0  0
    5.3775   47.6481   39.2159 H   0  0  0  0  0  0  0  0  0  0  0  0
    3.5731   45.9571   39.2656 H   0  0  0  0  0  0  0  0  0  0  0  0
   11.3847   41.5415   31.4675 H   0  0  0  0  0  0  0  0  0  0  0  0
    9.8231   40.7186   31.7578 H   0  0  0  0  0  0  0  0  0  0  0  0
   11.7004   39.5021   30.3474 H   0  0  0  0  0  0  0  0  0  0  0  0
   10.1095   38.2750   32.6606 H   0  0  0  0  0  0  0  0  0  0  0  0
   13.6713   37.4592   31.2228 H   0  0  0  0  0  0  0  0  0  0  0  0
    9.0032   37.3836   30.9350 H   0  0  0  0  0  0  0  0  0  0  0  0
   11.2706   36.3048   32.5088 H   0  0  0  0  0  0  0  0  0  0  0  0
   12.1444   35.5137   30.6141 H   0  0  0  0  0  0  0  0  0  0  0  0
   12.3362   38.3593   34.7445 H   0  0  0  0  0  0  0  0  0  0  0  0
   16.7570   34.1786   32.4620 H   0  0  0  0  0  0  0  0  0  0  0  0
   16.6363   34.5314   37.1416 H   0  0  0  0  0  0  0  0  0  0  0  0
   15.3531   35.7355   37.5139 H   0  0  0  0  0  0  0  0  0  0  0  0
  1  2  2  0
  1  3  1  0
  3  4  1  0
  4  5  1  0
  6  1  1  0
  7  6  1  0
  6  8  1  0
  8  9  1  0
  9 10  1  0
  9 11  2  0
 10 12  1  0
 12 13  1  0
 13 14  2  0
 15 13  1  0
 14 16  1  0
 14 17  1  0
 18 15  2  0
 16 19  1  0
 16 20  2  0
 17 21  2  0
 21 18  1  0
  4 22  2  0
  4 23  1  0
 24 23  1  0
 24 25  1  0
 25 26  1  0
 25 27  1  0
 26 28  1  0
 27 29  1  0
 27 30  1  0
 30 28  1  0
 28 31  1  0
 30 32  1  0
 33 31  1  0
 34 31  1  0
 35 33  2  0
 33 36  1  0
 37 34  2  0
 38 35  1  0
 36 39  2  0
 36 37  1  0
 40 38  2  0
 40 39  1  0
 39 41  1  0
  6 42  1  6
  7 43  1  0
  7 44  1  0
  8 45  1  0
  8 46  1  0
 12 47  1  0
 12 48  1  0
 15 49  1  0
 17 50  1  0
 18 51  1  0
 21 52  1  0
 24 53  1  0
 24 54  1  0
 25 55  1  0
 27 56  1  0
 28 57  1  0
 29 58  1  0
 30 59  1  0
 32 60  1  0
 34 61  1  0
 38 62  1  0
 41 63  1  0
 41 64  1  0
M  CHG  3   5  -1  16   1  19  -1
M  END
>  <EmbedRMS>  (199) 
0.08875617489256458

$$$$

     RDKit          3D

 64 67  0  0  0  0  0  0  0  0999 V2000
   10.2875   43.7689   33.8088 C   0  0  0  0  0  0  0  0  0  0  0  0
   11.4116   43.5793   34.3595 O   0  0  0  0  0  0  0  0  0  0  0  0
    9.3663   42.7306   33.7023 O   0  0  0  0  0  0  0  0  0  0  0  0
    9.8837   41.2330   34.2850 P   0  0  0  0  0  5  0  0  0  0  0  0
   10.3646   41.4682   35.8754 O   0  0  0  0  0  1  0  0  0  0  0  0
    9.9639   45.1117   33.2469 C   0  0  2  0  0  0  0  0  0  0  0  0
   11.0622   46.0541   33.4764 N   0  0  0  0  0  0  0  0  0  0  0  0
    8.6423   45.6684   33.8106 C   0  0  0  0  0  0  0  0  0  0  0  0
    8.6651   45.8208   35.3028 C   0  0  0  0  0  0  0  0  0  0  0  0
    9.1473   47.0054   35.8655 O   0  0  0  0  0  0  0  0  0  0  0  0
    8.2810   44.8694   36.0368 O   0  0  0  0  0  0  0  0  0  0  0  0
    9.2415   47.2066   37.2734 C   0  0  0  0  0  0  0  0  0  0  0  0
    9.8013   48.5754   37.5874 C   0  0  0  0  0  0  0  0  0  0  0  0
   10.5313   48.8224   38.7804 C   0  0  0  0  0  0  0  0  0  0  0  0
    9.5726   49.6409   36.6938 C   0  0  0  0  0  0  0  0  0  0  0  0
   10.7075   47.8049   39.7818 N   0  0  0  0  0  4  0  0  0  0  0  0
   11.0820   50.0986   38.9979 C   0  0  0  0  0  0  0  0  0  0  0  0
   10.1118   50.9046   36.9380 C   0  0  0  0  0  0  0  0  0  0  0  0
    9.6579   46.9887   40.1357 O   0  0  0  0  0  1  0  0  0  0  0  0
   11.7486   47.7775   40.4702 O   0  0  0  0  0  0  0  0  0  0  0  0
   10.8749   51.1299   38.0815 C   0  0  0  0  0  0  0  0  0  0  0  0
    8.8063   40.1902   34.2086 O   0  0  0  0  0  0  0  0  0  0  0  0
   11.2359   40.7899   33.3693 O   0  0  0  0  0  0  0  0  0  0  0  0
   10.9151   40.6897   31.9962 C   0  0  0  0  0  0  0  0  0  0  0  0
   11.5268   39.3898   31.4375 C   0  0  0  0  0  0  0  0  0  0  0  0
   12.7506   39.0917   32.0839 O   0  0  0  0  0  0  0  0  0  0  0  0
   10.6121   38.1915   31.6452 C   0  0  0  0  0  0  0  0  0  0  0  0
   12.9429   37.6853   32.0295 C   0  0  0  0  0  0  0  0  0  0  0  0
    9.6069   38.0857   30.6602 O   0  0  0  0  0  0  0  0  0  0  0  0
   11.5845   37.0186   31.6879 C   0  0  0  0  0  0  0  0  0  0  0  0
   13.4899   37.2164   33.3250 N   0  0  0  0  0  0  0  0  0  0  0  0
   11.6202   36.3063   30.4693 O   0  0  0  0  0  0  0  0  0  0  0  0
   14.4759   36.3263   33.5738 C   0  0  0  0  0  0  0  0  0  0  0  0
   13.1176   37.6308   34.5699 C   0  0  0  0  0  0  0  0  0  0  0  0
   15.2065   35.6139   32.6746 N   0  0  0  0  0  0  0  0  0  0  0  0
   14.6731   36.2267   34.9191 C   0  0  0  0  0  0  0  0  0  0  0  0
   13.8224   37.0450   35.5792 N   0  0  0  0  0  0  0  0  0  0  0  0
   16.1640   34.7596   33.1551 C   0  0  0  0  0  0  0  0  0  0  0  0
   15.6517   35.3489   35.4136 C   0  0  0  0  0  0  0  0  0  0  0  0
   16.3795   34.6310   34.5046 N   0  0  0  0  0  0  0  0  0  0  0  0
   15.9006   35.1931   36.8094 N   0  0  0  0  0  0  0  0  0  0  0  0
    9.8334   44.9917   32.1488 H   0  0  0  0  0  0  0  0  0  0  0  0
   11.3048   46.0961   34.4935 H   0  0  0  0  0  0  0  0  0  0  0  0
   11.9092   45.7280   32.9553 H   0  0  0  0  0  0  0  0  0  0  0  0
    7.8022   44.9994   33.5215 H   0  0  0  0  0  0  0  0  0  0  0  0
    8.4403   46.6602   33.3513 H   0  0  0  0  0  0  0  0  0  0  0  0
    9.9062   46.4184   37.6874 H   0  0  0  0  0  0  0  0  0  0  0  0
    8.2330   47.1157   37.7311 H   0  0  0  0  0  0  0  0  0  0  0  0
    8.9836   49.4955   35.7969 H   0  0  0  0  0  0  0  0  0  0  0  0
   11.6514   50.3032   39.8958 H   0  0  0  0  0  0  0  0  0  0  0  0
    9.9392   51.7108   36.2366 H   0  0  0  0  0  0  0  0  0  0  0  0
   11.2942   52.1104   38.2668 H   0  0  0  0  0  0  0  0  0  0  0  0
    9.8250   40.7190   31.7587 H   0  0  0  0  0  0  0  0  0  0  0  0
   11.3822   41.5527   31.4752 H   0  0  0  0  0  0  0  0  0  0  0  0
   11.7316   39.5340   30.3521 H   0  0  0  0  0  0  0  0  0  0  0  0
   10.1213   38.2680   32.6412 H   0  0  0  0  0  0  0  0  0  0  0  0
   13.6882   37.4709   31.2319 H   0  0  0  0  0  0  0  0  0  0  0  0
   10.0257   38.1750   29.7656 H   0  0  0  0  0  0  0  0  0  0  0  0
   11.2796   36.3123   32.4915 H   0  0  0  0  0  0  0  0  0  0  0  0
   11.9872   36.9099   29.7714 H   0  0  0  0  0  0  0  0  0  0  0  0
   12.3365   38.3596   34.7453 H   0  0  0  0  0  0  0  0  0  0  0  0
   16.7576   34.1794   32.4622 H   0  0  0  0  0  0  0  0  0  0  0  0
   15.3532   35.7351   37.5143 H   0  0  0  0  0  0  0  0  0  0  0  0
   16.6368   34.5316   37.1418 H   0  0  0  0  0  0  0  0  0  0  0  0
  1  2  2  0
  1  3  1  0
  3  4  1  0
  4  5  1  0
  6  1  1  0
  7  6  1  0
  6  8  1  0
  8  9  1  0
  9 10  1  0
  9 11  2  0
 10 12  1  0
 12 13  1  0
 13 14  2  0
 15 13  1  0
 14 16  1  0
 14 17  1  0
 18 15  2  0
 16 19  1  0
 16 20  2  0
 17 21  2  0
 21 18  1  0
  4 22  2  0
  4 23  1  0
 24 23  1  0
 24 25  1  0
 25 26  1  0
 25 27  1  0
 26 28  1  0
 27 29  1  0
 27 30  1  0
 30 28  1  0
 28 31  1  0
 30 32  1  0
 33 31  1  0
 34 31  1  0
 35 33  2  0
 33 36  1  0
 37 34  2  0
 38 35  1  0
 36 39  2  0
 36 37  1  0
 40 38  2  0
 40 39  1  0
 39 41  1  0
  6 42  1  6
  7 43  1  0
  7 44  1  0
  8 45  1  0
  8 46  1  0
 12 47  1  0
 12 48  1  0
 15 49  1  0
 17 50  1  0
 18 51  1  0
 21 52  1  0
 24 53  1  0
 24 54  1  0
 25 55  1  0
 27 56  1  0
 28 57  1  0
 29 58  1  0
 30 59  1  0
 32 60  1  0
 34 61  1  0
 38 62  1  0
 41 63  1  0
 41 64  1  0
M  CHG  3   5  -1  16   1  19  -1
M  END
>  <EmbedRMS>  (200) 
0.08765060865742469

$$$$

     RDKit          3D

 64 67  0  0  0  0  0  0  0  0999 V2000
   10.2843   43.7743   33.8068 C   0  0  0  0  0  0  0  0  0  0  0  0
   11.4068   43.5903   34.3635 O   0  0  0  0  0  0  0  0  0  0  0  0
    9.3678   42.7312   33.6989 O   0  0  0  0  0  0  0  0  0  0  0  0
    9.8859   41.2343   34.2834 P   0  0  0  0  0  5  0  0  0  0  0  0
   10.3666   41.4696   35.8739 O   0  0  0  0  0  1  0  0  0  0  0  0
    9.9490   45.1166   33.2550 C   0  0  2  0  0  0  0  0  0  0  0  0
   11.0755   46.0280   33.4733 N   0  0  0  0  0  0  0  0  0  0  0  0
    8.6782   45.6534   33.9431 C   0  0  0  0  0  0  0  0  0  0  0  0
    8.1804   46.9046   33.2878 C   0  0  0  0  0  0  0  0  0  0  0  0
    8.4920   48.1457   33.8495 O   0  0  0  0  0  0  0  0  0  0  0  0
    7.5128   46.8302   32.2201 O   0  0  0  0  0  0  0  0  0  0  0  0
    8.0820   49.3800   33.2662 C   0  0  0  0  0  0  0  0  0  0  0  0
    8.5536   50.5527   34.0957 C   0  0  0  0  0  0  0  0  0  0  0  0
    8.8167   51.8188   33.5083 C   0  0  0  0  0  0  0  0  0  0  0  0
    8.7093   50.4004   35.4880 C   0  0  0  0  0  0  0  0  0  0  0  0
    8.5748   52.0681   32.1124 N   0  0  0  0  0  4  0  0  0  0  0  0
    9.3096   52.8616   34.3138 C   0  0  0  0  0  0  0  0  0  0  0  0
    9.1814   51.4537   36.2722 C   0  0  0  0  0  0  0  0  0  0  0  0
    7.4317   51.5956   31.5098 O   0  0  0  0  0  1  0  0  0  0  0  0
    9.2968   52.8707   31.4853 O   0  0  0  0  0  0  0  0  0  0  0  0
    9.4924   52.6779   35.6846 C   0  0  0  0  0  0  0  0  0  0  0  0
    8.8082   40.1915   34.2082 O   0  0  0  0  0  0  0  0  0  0  0  0
   11.2372   40.7909   33.3668 O   0  0  0  0  0  0  0  0  0  0  0  0
   10.9138   40.6860   31.9943 C   0  0  0  0  0  0  0  0  0  0  0  0
   11.5171   39.3796   31.4408 C   0  0  0  0  0  0  0  0  0  0  0  0
   12.7488   39.0885   32.0761 O   0  0  0  0  0  0  0  0  0  0  0  0
   10.6052   38.1876   31.6659 C   0  0  0  0  0  0  0  0  0  0  0  0
   12.9412   37.6828   32.0278 C   0  0  0  0  0  0  0  0  0  0  0  0
    9.6358   38.0930   30.6503 O   0  0  0  0  0  0  0  0  0  0  0  0
   11.5827   37.0179   31.6936 C   0  0  0  0  0  0  0  0  0  0  0  0
   13.4909   37.2176   33.3239 N   0  0  0  0  0  0  0  0  0  0  0  0
   11.6140   36.3179   30.4675 O   0  0  0  0  0  0  0  0  0  0  0  0
   14.4763   36.3270   33.5733 C   0  0  0  0  0  0  0  0  0  0  0  0
   13.1179   37.6316   34.5689 C   0  0  0  0  0  0  0  0  0  0  0  0
   15.2067   35.6140   32.6744 N   0  0  0  0  0  0  0  0  0  0  0  0
   14.6731   36.2272   34.9186 C   0  0  0  0  0  0  0  0  0  0  0  0
   13.8223   37.0456   35.5785 N   0  0  0  0  0  0  0  0  0  0  0  0
   16.1639   34.7595   33.1551 C   0  0  0  0  0  0  0  0  0  0  0  0
   15.6515   35.3491   35.4134 C   0  0  0  0  0  0  0  0  0  0  0  0
   16.3793   34.6310   34.5046 N   0  0  0  0  0  0  0  0  0  0  0  0
   15.9002   35.1933   36.8093 N   0  0  0  0  0  0  0  0  0  0  0  0
    9.7629   45.0054   32.1624 H   0  0  0  0  0  0  0  0  0  0  0  0
   10.8468   46.9550   33.0476 H   0  0  0  0  0  0  0  0  0  0  0  0
   11.8957   45.6763   32.9262 H   0  0  0  0  0  0  0  0  0  0  0  0
    7.8673   44.8936   33.8956 H   0  0  0  0  0  0  0  0  0  0  0  0
    8.8867   45.8565   35.0165 H   0  0  0  0  0  0  0  0  0  0  0  0
    6.9732   49.4099   33.1981 H   0  0  0  0  0  0  0  0  0  0  0  0
    8.5153   49.4357   32.2446 H   0  0  0  0  0  0  0  0  0  0  0  0
    8.4756   49.4606   35.9724 H   0  0  0  0  0  0  0  0  0  0  0  0
    9.5271   53.8305   33.8822 H   0  0  0  0  0  0  0  0  0  0  0  0
    9.3087   51.3190   37.3387 H   0  0  0  0  0  0  0  0  0  0  0  0
    9.8610   53.4922   36.2951 H   0  0  0  0  0  0  0  0  0  0  0  0
   11.3859   41.5432   31.4683 H   0  0  0  0  0  0  0  0  0  0  0  0
    9.8237   40.7210   31.7578 H   0  0  0  0  0  0  0  0  0  0  0  0
   11.6995   39.5063   30.3486 H   0  0  0  0  0  0  0  0  0  0  0  0
   10.1121   38.2723   32.6632 H   0  0  0  0  0  0  0  0  0  0  0  0
   13.6816   37.4631   31.2269 H   0  0  0  0  0  0  0  0  0  0  0  0
    9.0037   37.3828   30.9349 H   0  0  0  0  0  0  0  0  0  0  0  0
   11.2846   36.3040   32.4928 H   0  0  0  0  0  0  0  0  0  0  0  0
   11.8850   36.9589   29.7588 H   0  0  0  0  0  0  0  0  0  0  0  0
   12.3363   38.3599   34.7441 H   0  0  0  0  0  0  0  0  0  0  0  0
   16.7574   34.1790   32.4623 H   0  0  0  0  0  0  0  0  0  0  0  0
   15.3529   35.7356   37.5141 H   0  0  0  0  0  0  0  0  0  0  0  0
   16.6363   34.5317   37.1418 H   0  0  0  0  0  0  0  0  0  0  0  0
  1  2  2  0
  1  3  1  0
  3  4  1  0
  4  5  1  0
  6  1  1  0
  7  6  1  0
  6  8  1  0
  8  9  1  0
  9 10  1  0
  9 11  2  0
 10 12  1  0
 12 13  1  0
 13 14  2  0
 15 13  1  0
 14 16  1  0
 14 17  1  0
 18 15  2  0
 16 19  1  0
 16 20  2  0
 17 21  2  0
 21 18  1  0
  4 22  2  0
  4 23  1  0
 24 23  1  0
 24 25  1  0
 25 26  1  0
 25 27  1  0
 26 28  1  0
 27 29  1  0
 27 30  1  0
 30 28  1  0
 28 31  1  0
 30 32  1  0
 33 31  1  0
 34 31  1  0
 35 33  2  0
 33 36  1  0
 37 34  2  0
 38 35  1  0
 36 39  2  0
 36 37  1  0
 40 38  2  0
 40 39  1  0
 39 41  1  0
  6 42  1  6
  7 43  1  0
  7 44  1  0
  8 45  1  0
  8 46  1  0
 12 47  1  0
 12 48  1  0
 15 49  1  0
 17 50  1  0
 18 51  1  0
 21 52  1  0
 24 53  1  0
 24 54  1  0
 25 55  1  0
 27 56  1  0
 28 57  1  0
 29 58  1  0
 30 59  1  0
 32 60  1  0
 34 61  1  0
 38 62  1  0
 41 63  1  0
 41 64  1  0
M  CHG  3   5  -1  16   1  19  -1
M  END
>  <EmbedRMS>  (201) 
0.0879366611433213

$$$$

     RDKit          3D

 64 67  0  0  0  0  0  0  0  0999 V2000
   10.2820   43.7752   33.8089 C   0  0  0  0  0  0  0  0  0  0  0  0
   11.4049   43.5916   34.3648 O   0  0  0  0  0  0  0  0  0  0  0  0
    9.3695   42.7292   33.6971 O   0  0  0  0  0  0  0  0  0  0  0  0
    9.8866   41.2336   34.2834 P   0  0  0  0  0  5  0  0  0  0  0  0
   10.3666   41.4699   35.8740 O   0  0  0  0  0  1  0  0  0  0  0  0
    9.9473   45.1207   33.2570 C   0  0  2  0  0  0  0  0  0  0  0  0
   11.0783   46.0253   33.4701 N   0  0  0  0  0  0  0  0  0  0  0  0
    8.6904   45.6991   33.9403 C   0  0  0  0  0  0  0  0  0  0  0  0
    7.4517   44.9335   33.5860 C   0  0  0  0  0  0  0  0  0  0  0  0
    7.0205   44.9001   32.2553 O   0  0  0  0  0  0  0  0  0  0  0  0
    6.8149   44.3198   34.4856 O   0  0  0  0  0  0  0  0  0  0  0  0
    5.8541   44.1987   31.8291 C   0  0  0  0  0  0  0  0  0  0  0  0
    4.6029   44.8712   32.3465 C   0  0  0  0  0  0  0  0  0  0  0  0
    4.3347   46.2501   32.1239 C   0  0  0  0  0  0  0  0  0  0  0  0
    3.6973   44.1102   33.1087 C   0  0  0  0  0  0  0  0  0  0  0  0
    5.2096   47.0840   31.3417 N   0  0  0  0  0  4  0  0  0  0  0  0
    3.1881   46.8251   32.7006 C   0  0  0  0  0  0  0  0  0  0  0  0
    2.5576   44.6983   33.6577 C   0  0  0  0  0  0  0  0  0  0  0  0
    5.3014   48.4295   31.6153 O   0  0  0  0  0  1  0  0  0  0  0  0
    5.7646   46.6427   30.3149 O   0  0  0  0  0  0  0  0  0  0  0  0
    2.3060   46.0538   33.4582 C   0  0  0  0  0  0  0  0  0  0  0  0
    8.8084   40.1914   34.2081 O   0  0  0  0  0  0  0  0  0  0  0  0
   11.2377   40.7901   33.3669 O   0  0  0  0  0  0  0  0  0  0  0  0
   10.9141   40.6859   31.9944 C   0  0  0  0  0  0  0  0  0  0  0  0
   11.5171   39.3796   31.4406 C   0  0  0  0  0  0  0  0  0  0  0  0
   12.7489   39.0885   32.0759 O   0  0  0  0  0  0  0  0  0  0  0  0
   10.6052   38.1877   31.6658 C   0  0  0  0  0  0  0  0  0  0  0  0
   12.9412   37.6827   32.0277 C   0  0  0  0  0  0  0  0  0  0  0  0
    9.6358   38.0931   30.6503 O   0  0  0  0  0  0  0  0  0  0  0  0
   11.5826   37.0179   31.6936 C   0  0  0  0  0  0  0  0  0  0  0  0
   13.4909   37.2176   33.3239 N   0  0  0  0  0  0  0  0  0  0  0  0
   11.6139   36.3179   30.4675 O   0  0  0  0  0  0  0  0  0  0  0  0
   14.4762   36.3269   33.5733 C   0  0  0  0  0  0  0  0  0  0  0  0
   13.1179   37.6316   34.5688 C   0  0  0  0  0  0  0  0  0  0  0  0
   15.2067   35.6140   32.6743 N   0  0  0  0  0  0  0  0  0  0  0  0
   14.6731   36.2272   34.9186 C   0  0  0  0  0  0  0  0  0  0  0  0
   13.8223   37.0456   35.5785 N   0  0  0  0  0  0  0  0  0  0  0  0
   16.1639   34.7594   33.1551 C   0  0  0  0  0  0  0  0  0  0  0  0
   15.6515   35.3491   35.4134 C   0  0  0  0  0  0  0  0  0  0  0  0
   16.3792   34.6310   34.5046 N   0  0  0  0  0  0  0  0  0  0  0  0
   15.9002   35.1933   36.8093 N   0  0  0  0  0  0  0  0  0  0  0  0
    9.7628   45.0213   32.1630 H   0  0  0  0  0  0  0  0  0  0  0  0
   10.8349   46.9621   33.0729 H   0  0  0  0  0  0  0  0  0  0  0  0
   11.8858   45.6857   32.8969 H   0  0  0  0  0  0  0  0  0  0  0  0
    8.8313   45.7122   35.0441 H   0  0  0  0  0  0  0  0  0  0  0  0
    8.5380   46.7495   33.6112 H   0  0  0  0  0  0  0  0  0  0  0  0
    5.8260   44.1728   30.7206 H   0  0  0  0  0  0  0  0  0  0  0  0
    5.9226   43.1409   32.1663 H   0  0  0  0  0  0  0  0  0  0  0  0
    3.8786   43.0581   33.2909 H   0  0  0  0  0  0  0  0  0  0  0  0
    2.9663   47.8738   32.5493 H   0  0  0  0  0  0  0  0  0  0  0  0
    1.8712   44.1023   34.2454 H   0  0  0  0  0  0  0  0  0  0  0  0
    1.4231   46.5085   33.8890 H   0  0  0  0  0  0  0  0  0  0  0  0
   11.3862   41.5432   31.4687 H   0  0  0  0  0  0  0  0  0  0  0  0
    9.8239   40.7212   31.7579 H   0  0  0  0  0  0  0  0  0  0  0  0
   11.6995   39.5064   30.3484 H   0  0  0  0  0  0  0  0  0  0  0  0
   10.1122   38.2724   32.6631 H   0  0  0  0  0  0  0  0  0  0  0  0
   13.6816   37.4629   31.2268 H   0  0  0  0  0  0  0  0  0  0  0  0
    9.0034   37.3831   30.9352 H   0  0  0  0  0  0  0  0  0  0  0  0
   11.2845   36.3040   32.4928 H   0  0  0  0  0  0  0  0  0  0  0  0
   11.8849   36.9589   29.7588 H   0  0  0  0  0  0  0  0  0  0  0  0
   12.3363   38.3599   34.7440 H   0  0  0  0  0  0  0  0  0  0  0  0
   16.7574   34.1790   32.4623 H   0  0  0  0  0  0  0  0  0  0  0  0
   15.3529   35.7356   37.5141 H   0  0  0  0  0  0  0  0  0  0  0  0
   16.6363   34.5317   37.1418 H   0  0  0  0  0  0  0  0  0  0  0  0
  1  2  2  0
  1  3  1  0
  3  4  1  0
  4  5  1  0
  6  1  1  0
  7  6  1  0
  6  8  1  0
  8  9  1  0
  9 10  1  0
  9 11  2  0
 10 12  1  0
 12 13  1  0
 13 14  2  0
 15 13  1  0
 14 16  1  0
 14 17  1  0
 18 15  2  0
 16 19  1  0
 16 20  2  0
 17 21  2  0
 21 18  1  0
  4 22  2  0
  4 23  1  0
 24 23  1  0
 24 25  1  0
 25 26  1  0
 25 27  1  0
 26 28  1  0
 27 29  1  0
 27 30  1  0
 30 28  1  0
 28 31  1  0
 30 32  1  0
 33 31  1  0
 34 31  1  0
 35 33  2  0
 33 36  1  0
 37 34  2  0
 38 35  1  0
 36 39  2  0
 36 37  1  0
 40 38  2  0
 40 39  1  0
 39 41  1  0
  6 42  1  6
  7 43  1  0
  7 44  1  0
  8 45  1  0
  8 46  1  0
 12 47  1  0
 12 48  1  0
 15 49  1  0
 17 50  1  0
 18 51  1  0
 21 52  1  0
 24 53  1  0
 24 54  1  0
 25 55  1  0
 27 56  1  0
 28 57  1  0
 29 58  1  0
 30 59  1  0
 32 60  1  0
 34 61  1  0
 38 62  1  0
 41 63  1  0
 41 64  1  0
M  CHG  3   5  -1  16   1  19  -1
M  END
>  <EmbedRMS>  (202) 
0.08816180334127448

$$$$

     RDKit          3D

 64 67  0  0  0  0  0  0  0  0999 V2000
   10.2844   43.7743   33.8068 C   0  0  0  0  0  0  0  0  0  0  0  0
   11.4068   43.5903   34.3634 O   0  0  0  0  0  0  0  0  0  0  0  0
    9.3678   42.7312   33.6990 O   0  0  0  0  0  0  0  0  0  0  0  0
    9.8856   41.2344   34.2840 P   0  0  0  0  0  5  0  0  0  0  0  0
   10.3659   41.4699   35.8746 O   0  0  0  0  0  1  0  0  0  0  0  0
    9.9491   45.1165   33.2548 C   0  0  2  0  0  0  0  0  0  0  0  0
   11.0754   46.0281   33.4734 N   0  0  0  0  0  0  0  0  0  0  0  0
    8.6782   45.6534   33.9425 C   0  0  0  0  0  0  0  0  0  0  0  0
    8.1797   46.9038   33.2868 C   0  0  0  0  0  0  0  0  0  0  0  0
    8.4542   48.1454   33.8718 O   0  0  0  0  0  0  0  0  0  0  0  0
    7.5399   46.8297   32.2021 O   0  0  0  0  0  0  0  0  0  0  0  0
    8.0157   49.3845   33.3150 C   0  0  0  0  0  0  0  0  0  0  0  0
    6.5166   49.5577   33.4466 C   0  0  0  0  0  0  0  0  0  0  0  0
    5.7602   50.2807   32.4857 C   0  0  0  0  0  0  0  0  0  0  0  0
    5.8560   49.0112   34.5644 C   0  0  0  0  0  0  0  0  0  0  0  0
    6.3840   50.9584   31.3818 N   0  0  0  0  0  4  0  0  0  0  0  0
    4.3630   50.3518   32.6228 C   0  0  0  0  0  0  0  0  0  0  0  0
    4.4700   49.1106   34.6925 C   0  0  0  0  0  0  0  0  0  0  0  0
    5.7188   51.0726   30.1828 O   0  0  0  0  0  1  0  0  0  0  0  0
    7.4246   51.6251   31.5577 O   0  0  0  0  0  0  0  0  0  0  0  0
    3.7236   49.7684   33.7172 C   0  0  0  0  0  0  0  0  0  0  0  0
    8.8081   40.1914   34.2083 O   0  0  0  0  0  0  0  0  0  0  0  0
   11.2373   40.7904   33.3686 O   0  0  0  0  0  0  0  0  0  0  0  0
   10.9158   40.6897   31.9957 C   0  0  0  0  0  0  0  0  0  0  0  0
   11.5271   39.3897   31.4372 C   0  0  0  0  0  0  0  0  0  0  0  0
   12.7508   39.0915   32.0838 O   0  0  0  0  0  0  0  0  0  0  0  0
   10.6122   38.1916   31.6451 C   0  0  0  0  0  0  0  0  0  0  0  0
   12.9429   37.6852   32.0295 C   0  0  0  0  0  0  0  0  0  0  0  0
    9.6070   38.0858   30.6603 O   0  0  0  0  0  0  0  0  0  0  0  0
   11.5845   37.0185   31.6879 C   0  0  0  0  0  0  0  0  0  0  0  0
   13.4899   37.2163   33.3250 N   0  0  0  0  0  0  0  0  0  0  0  0
   11.6201   36.3062   30.4693 O   0  0  0  0  0  0  0  0  0  0  0  0
   14.4759   36.3263   33.5739 C   0  0  0  0  0  0  0  0  0  0  0  0
   13.1176   37.6307   34.5699 C   0  0  0  0  0  0  0  0  0  0  0  0
   15.2065   35.6138   32.6746 N   0  0  0  0  0  0  0  0  0  0  0  0
   14.6731   36.2267   34.9191 C   0  0  0  0  0  0  0  0  0  0  0  0
   13.8224   37.0450   35.5792 N   0  0  0  0  0  0  0  0  0  0  0  0
   16.1640   34.7595   33.1551 C   0  0  0  0  0  0  0  0  0  0  0  0
   15.6517   35.3489   35.4136 C   0  0  0  0  0  0  0  0  0  0  0  0
   16.3795   34.6310   34.5046 N   0  0  0  0  0  0  0  0  0  0  0  0
   15.9006   35.1931   36.8094 N   0  0  0  0  0  0  0  0  0  0  0  0
    9.7634   45.0050   32.1622 H   0  0  0  0  0  0  0  0  0  0  0  0
   11.8949   45.6778   32.9244 H   0  0  0  0  0  0  0  0  0  0  0  0
   10.8451   46.9559   33.0502 H   0  0  0  0  0  0  0  0  0  0  0  0
    7.8671   44.8938   33.8946 H   0  0  0  0  0  0  0  0  0  0  0  0
    8.8860   45.8563   35.0160 H   0  0  0  0  0  0  0  0  0  0  0  0
    8.5161   50.2142   33.8563 H   0  0  0  0  0  0  0  0  0  0  0  0
    8.3360   49.4202   32.2521 H   0  0  0  0  0  0  0  0  0  0  0  0
    6.4117   48.4921   35.3353 H   0  0  0  0  0  0  0  0  0  0  0  0
    3.7682   50.8869   31.8934 H   0  0  0  0  0  0  0  0  0  0  0  0
    3.9734   48.6730   35.5489 H   0  0  0  0  0  0  0  0  0  0  0  0
    2.6483   49.8412   33.8173 H   0  0  0  0  0  0  0  0  0  0  0  0
   11.3828   41.5525   31.4742 H   0  0  0  0  0  0  0  0  0  0  0  0
    9.8257   40.7191   31.7584 H   0  0  0  0  0  0  0  0  0  0  0  0
   11.7320   39.5336   30.3518 H   0  0  0  0  0  0  0  0  0  0  0  0
   10.1215   38.2683   32.6412 H   0  0  0  0  0  0  0  0  0  0  0  0
   13.6882   37.4706   31.2319 H   0  0  0  0  0  0  0  0  0  0  0  0
   10.0256   38.1750   29.7656 H   0  0  0  0  0  0  0  0  0  0  0  0
   11.2795   36.3123   32.4915 H   0  0  0  0  0  0  0  0  0  0  0  0
   11.9872   36.9098   29.7714 H   0  0  0  0  0  0  0  0  0  0  0  0
   12.3365   38.3595   34.7453 H   0  0  0  0  0  0  0  0  0  0  0  0
   16.7577   34.1794   32.4622 H   0  0  0  0  0  0  0  0  0  0  0  0
   16.6368   34.5316   37.1418 H   0  0  0  0  0  0  0  0  0  0  0  0
   15.3532   35.7351   37.5143 H   0  0  0  0  0  0  0  0  0  0  0  0
  1  2  2  0
  1  3  1  0
  3  4  1  0
  4  5  1  0
  6  1  1  0
  7  6  1  0
  6  8  1  0
  8  9  1  0
  9 10  1  0
  9 11  2  0
 10 12  1  0
 12 13  1  0
 13 14  2  0
 15 13  1  0
 14 16  1  0
 14 17  1  0
 18 15  2  0
 16 19  1  0
 16 20  2  0
 17 21  2  0
 21 18  1  0
  4 22  2  0
  4 23  1  0
 24 23  1  0
 24 25  1  0
 25 26  1  0
 25 27  1  0
 26 28  1  0
 27 29  1  0
 27 30  1  0
 30 28  1  0
 28 31  1  0
 30 32  1  0
 33 31  1  0
 34 31  1  0
 35 33  2  0
 33 36  1  0
 37 34  2  0
 38 35  1  0
 36 39  2  0
 36 37  1  0
 40 38  2  0
 40 39  1  0
 39 41  1  0
  6 42  1  6
  7 43  1  0
  7 44  1  0
  8 45  1  0
  8 46  1  0
 12 47  1  0
 12 48  1  0
 15 49  1  0
 17 50  1  0
 18 51  1  0
 21 52  1  0
 24 53  1  0
 24 54  1  0
 25 55  1  0
 27 56  1  0
 28 57  1  0
 29 58  1  0
 30 59  1  0
 32 60  1  0
 34 61  1  0
 38 62  1  0
 41 63  1  0
 41 64  1  0
M  CHG  3   5  -1  16   1  19  -1
M  END
>  <EmbedRMS>  (203) 
0.08707898478371937

$$$$

     RDKit          3D

 64 67  0  0  0  0  0  0  0  0999 V2000
   10.2807   43.7766   33.8102 C   0  0  0  0  0  0  0  0  0  0  0  0
   11.4067   43.5923   34.3595 O   0  0  0  0  0  0  0  0  0  0  0  0
    9.3677   42.7307   33.7019 O   0  0  0  0  0  0  0  0  0  0  0  0
    9.8865   41.2344   34.2851 P   0  0  0  0  0  5  0  0  0  0  0  0
   10.3671   41.4695   35.8754 O   0  0  0  0  0  1  0  0  0  0  0  0
    9.9550   45.1151   33.2398 C   0  0  2  0  0  0  0  0  0  0  0  0
   11.0731   46.0276   33.4848 N   0  0  0  0  0  0  0  0  0  0  0  0
    8.6481   45.6897   33.8313 C   0  0  0  0  0  0  0  0  0  0  0  0
    7.4434   44.9196   33.3816 C   0  0  0  0  0  0  0  0  0  0  0  0
    7.1242   44.8738   32.0217 O   0  0  0  0  0  0  0  0  0  0  0  0
    6.7381   44.3062   34.2288 O   0  0  0  0  0  0  0  0  0  0  0  0
    6.0676   44.0701   31.5088 C   0  0  0  0  0  0  0  0  0  0  0  0
    6.0247   44.1940   30.0080 C   0  0  0  0  0  0  0  0  0  0  0  0
    6.8649   43.4225   29.1604 C   0  0  0  0  0  0  0  0  0  0  0  0
    5.1191   45.1045   29.4344 C   0  0  0  0  0  0  0  0  0  0  0  0
    7.8513   42.5157   29.6848 N   0  0  0  0  0  4  0  0  0  0  0  0
    6.7282   43.5457   27.7664 C   0  0  0  0  0  0  0  0  0  0  0  0
    5.0127   45.2245   28.0482 C   0  0  0  0  0  0  0  0  0  0  0  0
    8.1979   41.3900   28.9734 O   0  0  0  0  0  1  0  0  0  0  0  0
    8.5325   42.8273   30.6823 O   0  0  0  0  0  0  0  0  0  0  0  0
    5.8099   44.4410   27.2159 C   0  0  0  0  0  0  0  0  0  0  0  0
    8.8087   40.1917   34.2089 O   0  0  0  0  0  0  0  0  0  0  0  0
   11.2377   40.7913   33.3682 O   0  0  0  0  0  0  0  0  0  0  0  0
   10.9132   40.6877   31.9962 C   0  0  0  0  0  0  0  0  0  0  0  0
   11.5269   39.3895   31.4373 C   0  0  0  0  0  0  0  0  0  0  0  0
   12.7505   39.0916   32.0841 O   0  0  0  0  0  0  0  0  0  0  0  0
   10.6123   38.1910   31.6448 C   0  0  0  0  0  0  0  0  0  0  0  0
   12.9429   37.6853   32.0295 C   0  0  0  0  0  0  0  0  0  0  0  0
    9.6070   38.0855   30.6599 O   0  0  0  0  0  0  0  0  0  0  0  0
   11.5847   37.0183   31.6875 C   0  0  0  0  0  0  0  0  0  0  0  0
   13.4898   37.2163   33.3249 N   0  0  0  0  0  0  0  0  0  0  0  0
   11.6205   36.3063   30.4688 O   0  0  0  0  0  0  0  0  0  0  0  0
   14.4759   36.3263   33.5738 C   0  0  0  0  0  0  0  0  0  0  0  0
   13.1175   37.6307   34.5698 C   0  0  0  0  0  0  0  0  0  0  0  0
   15.2065   35.6139   32.6746 N   0  0  0  0  0  0  0  0  0  0  0  0
   14.6731   36.2267   34.9190 C   0  0  0  0  0  0  0  0  0  0  0  0
   13.8224   37.0450   35.5792 N   0  0  0  0  0  0  0  0  0  0  0  0
   16.1640   34.7596   33.1551 C   0  0  0  0  0  0  0  0  0  0  0  0
   15.6517   35.3489   35.4136 C   0  0  0  0  0  0  0  0  0  0  0  0
   16.3795   34.6310   34.5046 N   0  0  0  0  0  0  0  0  0  0  0  0
   15.9006   35.1931   36.8094 N   0  0  0  0  0  0  0  0  0  0  0  0
    9.8396   44.9963   32.1395 H   0  0  0  0  0  0  0  0  0  0  0  0
   10.9099   46.9086   32.9447 H   0  0  0  0  0  0  0  0  0  0  0  0
   11.0993   46.2866   34.4990 H   0  0  0  0  0  0  0  0  0  0  0  0
    8.5220   46.7412   33.4949 H   0  0  0  0  0  0  0  0  0  0  0  0
    8.7043   45.6969   34.9426 H   0  0  0  0  0  0  0  0  0  0  0  0
    5.1036   44.3988   31.9559 H   0  0  0  0  0  0  0  0  0  0  0  0
    6.2173   43.0081   31.8010 H   0  0  0  0  0  0  0  0  0  0  0  0
    4.4835   45.7167   30.0626 H   0  0  0  0  0  0  0  0  0  0  0  0
    7.3520   42.9618   27.1014 H   0  0  0  0  0  0  0  0  0  0  0  0
    4.3065   45.9233   27.6185 H   0  0  0  0  0  0  0  0  0  0  0  0
    5.7226   44.5334   26.1410 H   0  0  0  0  0  0  0  0  0  0  0  0
   11.3725   41.5527   31.4715 H   0  0  0  0  0  0  0  0  0  0  0  0
    9.8224   40.7069   31.7640 H   0  0  0  0  0  0  0  0  0  0  0  0
   11.7318   39.5342   30.3521 H   0  0  0  0  0  0  0  0  0  0  0  0
   10.1215   38.2672   32.6408 H   0  0  0  0  0  0  0  0  0  0  0  0
   13.6884   37.4711   31.2319 H   0  0  0  0  0  0  0  0  0  0  0  0
   10.0250   38.1780   29.7652 H   0  0  0  0  0  0  0  0  0  0  0  0
   11.2798   36.3119   32.4910 H   0  0  0  0  0  0  0  0  0  0  0  0
   11.9867   36.9105   29.7710 H   0  0  0  0  0  0  0  0  0  0  0  0
   12.3365   38.3595   34.7453 H   0  0  0  0  0  0  0  0  0  0  0  0
   16.7577   34.1794   32.4622 H   0  0  0  0  0  0  0  0  0  0  0  0
   15.3532   35.7351   37.5143 H   0  0  0  0  0  0  0  0  0  0  0  0
   16.6368   34.5316   37.1418 H   0  0  0  0  0  0  0  0  0  0  0  0
  1  2  2  0
  1  3  1  0
  3  4  1  0
  4  5  1  0
  6  1  1  0
  7  6  1  0
  6  8  1  0
  8  9  1  0
  9 10  1  0
  9 11  2  0
 10 12  1  0
 12 13  1  0
 13 14  2  0
 15 13  1  0
 14 16  1  0
 14 17  1  0
 18 15  2  0
 16 19  1  0
 16 20  2  0
 17 21  2  0
 21 18  1  0
  4 22  2  0
  4 23  1  0
 24 23  1  0
 24 25  1  0
 25 26  1  0
 25 27  1  0
 26 28  1  0
 27 29  1  0
 27 30  1  0
 30 28  1  0
 28 31  1  0
 30 32  1  0
 33 31  1  0
 34 31  1  0
 35 33  2  0
 33 36  1  0
 37 34  2  0
 38 35  1  0
 36 39  2  0
 36 37  1  0
 40 38  2  0
 40 39  1  0
 39 41  1  0
  6 42  1  6
  7 43  1  0
  7 44  1  0
  8 45  1  0
  8 46  1  0
 12 47  1  0
 12 48  1  0
 15 49  1  0
 17 50  1  0
 18 51  1  0
 21 52  1  0
 24 53  1  0
 24 54  1  0
 25 55  1  0
 27 56  1  0
 28 57  1  0
 29 58  1  0
 30 59  1  0
 32 60  1  0
 34 61  1  0
 38 62  1  0
 41 63  1  0
 41 64  1  0
M  CHG  3   5  -1  16   1  19  -1
M  END
>  <EmbedRMS>  (204) 
0.08693199331733562

$$$$

     RDKit          3D

 64 67  0  0  0  0  0  0  0  0999 V2000
   10.2831   43.7754   33.8077 C   0  0  0  0  0  0  0  0  0  0  0  0
   11.4087   43.5913   34.3578 O   0  0  0  0  0  0  0  0  0  0  0  0
    9.3670   42.7317   33.7012 O   0  0  0  0  0  0  0  0  0  0  0  0
    9.8865   41.2344   34.2838 P   0  0  0  0  0  5  0  0  0  0  0  0
   10.3665   41.4694   35.8745 O   0  0  0  0  0  1  0  0  0  0  0  0
    9.9538   45.1114   33.2431 C   0  0  2  0  0  0  0  0  0  0  0  0
   11.0721   46.0272   33.4849 N   0  0  0  0  0  0  0  0  0  0  0  0
    8.6403   45.6440   33.8530 C   0  0  0  0  0  0  0  0  0  0  0  0
    8.2176   46.9265   33.2074 C   0  0  0  0  0  0  0  0  0  0  0  0
    7.6854   46.9002   31.9138 O   0  0  0  0  0  0  0  0  0  0  0  0
    8.3672   48.0181   33.8216 O   0  0  0  0  0  0  0  0  0  0  0  0
    7.2231   48.0663   31.2349 C   0  0  0  0  0  0  0  0  0  0  0  0
    5.9644   48.6008   31.8793 C   0  0  0  0  0  0  0  0  0  0  0  0
    4.8291   47.7802   32.1188 C   0  0  0  0  0  0  0  0  0  0  0  0
    5.9371   49.9470   32.2876 C   0  0  0  0  0  0  0  0  0  0  0  0
    4.7873   46.4016   31.7070 N   0  0  0  0  0  4  0  0  0  0  0  0
    3.7196   48.3263   32.7904 C   0  0  0  0  0  0  0  0  0  0  0  0
    4.8199   50.4720   32.9380 C   0  0  0  0  0  0  0  0  0  0  0  0
    5.3030   46.0156   30.4918 O   0  0  0  0  0  1  0  0  0  0  0  0
    4.1409   45.5685   32.3754 O   0  0  0  0  0  0  0  0  0  0  0  0
    3.7155   49.6622   33.1934 C   0  0  0  0  0  0  0  0  0  0  0  0
    8.8090   40.1914   34.2077 O   0  0  0  0  0  0  0  0  0  0  0  0
   11.2390   40.7909   33.3682 O   0  0  0  0  0  0  0  0  0  0  0  0
   10.9194   40.6896   31.9946 C   0  0  0  0  0  0  0  0  0  0  0  0
   11.5171   39.3801   31.4397 C   0  0  0  0  0  0  0  0  0  0  0  0
   12.7478   39.0861   32.0734 O   0  0  0  0  0  0  0  0  0  0  0  0
   10.6031   38.1891   31.6666 C   0  0  0  0  0  0  0  0  0  0  0  0
   12.9335   37.6796   32.0280 C   0  0  0  0  0  0  0  0  0  0  0  0
    9.6397   38.0777   30.6456 O   0  0  0  0  0  0  0  0  0  0  0  0
   11.5739   37.0154   31.7057 C   0  0  0  0  0  0  0  0  0  0  0  0
   13.4903   37.2178   33.3231 N   0  0  0  0  0  0  0  0  0  0  0  0
   11.6211   36.3376   30.4695 O   0  0  0  0  0  0  0  0  0  0  0  0
   14.4761   36.3273   33.5725 C   0  0  0  0  0  0  0  0  0  0  0  0
   13.1179   37.6316   34.5684 C   0  0  0  0  0  0  0  0  0  0  0  0
   15.2063   35.6139   32.6737 N   0  0  0  0  0  0  0  0  0  0  0  0
   14.6733   36.2277   34.9180 C   0  0  0  0  0  0  0  0  0  0  0  0
   13.8225   37.0459   35.5779 N   0  0  0  0  0  0  0  0  0  0  0  0
   16.1636   34.7594   33.1546 C   0  0  0  0  0  0  0  0  0  0  0  0
   15.6515   35.3494   35.4129 C   0  0  0  0  0  0  0  0  0  0  0  0
   16.3791   34.6311   34.5041 N   0  0  0  0  0  0  0  0  0  0  0  0
   15.9001   35.1935   36.8088 N   0  0  0  0  0  0  0  0  0  0  0  0
    9.8223   44.9843   32.1452 H   0  0  0  0  0  0  0  0  0  0  0  0
   10.9369   46.8886   32.9076 H   0  0  0  0  0  0  0  0  0  0  0  0
   11.0798   46.3196   34.4900 H   0  0  0  0  0  0  0  0  0  0  0  0
    8.7569   45.7909   34.9497 H   0  0  0  0  0  0  0  0  0  0  0  0
    7.8266   44.9024   33.6991 H   0  0  0  0  0  0  0  0  0  0  0  0
    8.0346   48.8269   31.2252 H   0  0  0  0  0  0  0  0  0  0  0  0
    7.0146   47.8158   30.1749 H   0  0  0  0  0  0  0  0  0  0  0  0
    6.7888   50.5930   32.1136 H   0  0  0  0  0  0  0  0  0  0  0  0
    2.8459   47.7182   32.9883 H   0  0  0  0  0  0  0  0  0  0  0  0
    4.8136   51.5083   33.2507 H   0  0  0  0  0  0  0  0  0  0  0  0
    2.8518   50.0709   33.7019 H   0  0  0  0  0  0  0  0  0  0  0  0
    9.8315   40.7396   31.7549 H   0  0  0  0  0  0  0  0  0  0  0  0
   11.4008   41.5437   31.4722 H   0  0  0  0  0  0  0  0  0  0  0  0
   11.6983   39.5042   30.3470 H   0  0  0  0  0  0  0  0  0  0  0  0
   10.1090   38.2632   32.6649 H   0  0  0  0  0  0  0  0  0  0  0  0
   13.6656   37.4541   31.2207 H   0  0  0  0  0  0  0  0  0  0  0  0
    8.8965   38.6900   30.8852 H   0  0  0  0  0  0  0  0  0  0  0  0
   11.2846   36.3060   32.5175 H   0  0  0  0  0  0  0  0  0  0  0  0
   10.8523   35.7095   30.4590 H   0  0  0  0  0  0  0  0  0  0  0  0
   12.3353   38.3588   34.7439 H   0  0  0  0  0  0  0  0  0  0  0  0
   16.7570   34.1788   32.4619 H   0  0  0  0  0  0  0  0  0  0  0  0
   15.3529   35.7359   37.5136 H   0  0  0  0  0  0  0  0  0  0  0  0
   16.6360   34.5317   37.1413 H   0  0  0  0  0  0  0  0  0  0  0  0
  1  2  2  0
  1  3  1  0
  3  4  1  0
  4  5  1  0
  6  1  1  0
  7  6  1  0
  6  8  1  0
  8  9  1  0
  9 10  1  0
  9 11  2  0
 10 12  1  0
 12 13  1  0
 13 14  2  0
 15 13  1  0
 14 16  1  0
 14 17  1  0
 18 15  2  0
 16 19  1  0
 16 20  2  0
 17 21  2  0
 21 18  1  0
  4 22  2  0
  4 23  1  0
 24 23  1  0
 24 25  1  0
 25 26  1  0
 25 27  1  0
 26 28  1  0
 27 29  1  0
 27 30  1  0
 30 28  1  0
 28 31  1  0
 30 32  1  0
 33 31  1  0
 34 31  1  0
 35 33  2  0
 33 36  1  0
 37 34  2  0
 38 35  1  0
 36 39  2  0
 36 37  1  0
 40 38  2  0
 40 39  1  0
 39 41  1  0
  6 42  1  6
  7 43  1  0
  7 44  1  0
  8 45  1  0
  8 46  1  0
 12 47  1  0
 12 48  1  0
 15 49  1  0
 17 50  1  0
 18 51  1  0
 21 52  1  0
 24 53  1  0
 24 54  1  0
 25 55  1  0
 27 56  1  0
 28 57  1  0
 29 58  1  0
 30 59  1  0
 32 60  1  0
 34 61  1  0
 38 62  1  0
 41 63  1  0
 41 64  1  0
M  CHG  3   5  -1  16   1  19  -1
M  END
>  <EmbedRMS>  (205) 
0.08916977912777548

$$$$

     RDKit          3D

 64 67  0  0  0  0  0  0  0  0999 V2000
   10.2815   43.7757   33.8097 C   0  0  0  0  0  0  0  0  0  0  0  0
   11.4045   43.5923   34.3657 O   0  0  0  0  0  0  0  0  0  0  0  0
    9.3714   42.7283   33.6946 O   0  0  0  0  0  0  0  0  0  0  0  0
    9.8868   41.2332   34.2836 P   0  0  0  0  0  5  0  0  0  0  0  0
   10.3658   41.4704   35.8743 O   0  0  0  0  0  1  0  0  0  0  0  0
    9.9444   45.1233   33.2622 C   0  0  2  0  0  0  0  0  0  0  0  0
   11.0798   46.0244   33.4664 N   0  0  0  0  0  0  0  0  0  0  0  0
    8.6954   45.7069   33.9572 C   0  0  0  0  0  0  0  0  0  0  0  0
    7.4518   44.9448   33.6146 C   0  0  0  0  0  0  0  0  0  0  0  0
    6.9371   44.0253   34.5322 O   0  0  0  0  0  0  0  0  0  0  0  0
    6.9053   45.1072   32.4894 O   0  0  0  0  0  0  0  0  0  0  0  0
    5.8517   43.1543   34.2253 C   0  0  0  0  0  0  0  0  0  0  0  0
    5.5742   42.2001   35.3661 C   0  0  0  0  0  0  0  0  0  0  0  0
    4.3096   41.5662   35.5073 C   0  0  0  0  0  0  0  0  0  0  0  0
    6.5937   41.9016   36.2934 C   0  0  0  0  0  0  0  0  0  0  0  0
    3.2504   41.7587   34.5524 N   0  0  0  0  0  4  0  0  0  0  0  0
    4.0836   40.7208   36.6080 C   0  0  0  0  0  0  0  0  0  0  0  0
    6.3538   41.0429   37.3663 C   0  0  0  0  0  0  0  0  0  0  0  0
    1.9378   41.6850   34.9588 O   0  0  0  0  0  1  0  0  0  0  0  0
    3.4979   41.8048   33.3298 O   0  0  0  0  0  0  0  0  0  0  0  0
    5.0985   40.4621   37.5294 C   0  0  0  0  0  0  0  0  0  0  0  0
    8.8080   40.1916   34.2081 O   0  0  0  0  0  0  0  0  0  0  0  0
   11.2380   40.7885   33.3689 O   0  0  0  0  0  0  0  0  0  0  0  0
   10.9163   40.6893   31.9959 C   0  0  0  0  0  0  0  0  0  0  0  0
   11.5272   39.3895   31.4369 C   0  0  0  0  0  0  0  0  0  0  0  0
   12.7510   39.0913   32.0833 O   0  0  0  0  0  0  0  0  0  0  0  0
   10.6122   38.1915   31.6451 C   0  0  0  0  0  0  0  0  0  0  0  0
   12.9429   37.6850   32.0294 C   0  0  0  0  0  0  0  0  0  0  0  0
    9.6069   38.0858   30.6603 O   0  0  0  0  0  0  0  0  0  0  0  0
   11.5844   37.0185   31.6879 C   0  0  0  0  0  0  0  0  0  0  0  0
   13.4898   37.2163   33.3249 N   0  0  0  0  0  0  0  0  0  0  0  0
   11.6200   36.3061   30.4693 O   0  0  0  0  0  0  0  0  0  0  0  0
   14.4759   36.3263   33.5739 C   0  0  0  0  0  0  0  0  0  0  0  0
   13.1175   37.6307   34.5698 C   0  0  0  0  0  0  0  0  0  0  0  0
   15.2065   35.6139   32.6746 N   0  0  0  0  0  0  0  0  0  0  0  0
   14.6731   36.2267   34.9191 C   0  0  0  0  0  0  0  0  0  0  0  0
   13.8224   37.0450   35.5792 N   0  0  0  0  0  0  0  0  0  0  0  0
   16.1640   34.7596   33.1551 C   0  0  0  0  0  0  0  0  0  0  0  0
   15.6517   35.3489   35.4136 C   0  0  0  0  0  0  0  0  0  0  0  0
   16.3795   34.6310   34.5046 N   0  0  0  0  0  0  0  0  0  0  0  0
   15.9006   35.1931   36.8094 N   0  0  0  0  0  0  0  0  0  0  0  0
    9.7484   45.0258   32.1700 H   0  0  0  0  0  0  0  0  0  0  0  0
   11.8821   45.6816   32.8879 H   0  0  0  0  0  0  0  0  0  0  0  0
   10.8368   46.9616   33.0699 H   0  0  0  0  0  0  0  0  0  0  0  0
    8.8402   45.7077   35.0600 H   0  0  0  0  0  0  0  0  0  0  0  0
    8.5494   46.7626   33.6408 H   0  0  0  0  0  0  0  0  0  0  0  0
    6.1004   42.5615   33.3186 H   0  0  0  0  0  0  0  0  0  0  0  0
    4.9537   43.7774   34.0250 H   0  0  0  0  0  0  0  0  0  0  0  0
    7.5788   42.3388   36.1980 H   0  0  0  0  0  0  0  0  0  0  0  0
    3.1238   40.2374   36.7392 H   0  0  0  0  0  0  0  0  0  0  0  0
    7.1436   40.8301   38.0752 H   0  0  0  0  0  0  0  0  0  0  0  0
    4.9144   39.7990   38.3649 H   0  0  0  0  0  0  0  0  0  0  0  0
   11.3837   41.5523   31.4751 H   0  0  0  0  0  0  0  0  0  0  0  0
    9.8262   40.7191   31.7585 H   0  0  0  0  0  0  0  0  0  0  0  0
   11.7319   39.5336   30.3515 H   0  0  0  0  0  0  0  0  0  0  0  0
   10.1216   38.2684   32.6412 H   0  0  0  0  0  0  0  0  0  0  0  0
   13.6882   37.4702   31.2318 H   0  0  0  0  0  0  0  0  0  0  0  0
   10.0254   38.1750   29.7656 H   0  0  0  0  0  0  0  0  0  0  0  0
   11.2794   36.3123   32.4916 H   0  0  0  0  0  0  0  0  0  0  0  0
   11.9869   36.9098   29.7714 H   0  0  0  0  0  0  0  0  0  0  0  0
   12.3364   38.3594   34.7452 H   0  0  0  0  0  0  0  0  0  0  0  0
   16.7577   34.1794   32.4622 H   0  0  0  0  0  0  0  0  0  0  0  0
   15.3532   35.7351   37.5143 H   0  0  0  0  0  0  0  0  0  0  0  0
   16.6368   34.5316   37.1418 H   0  0  0  0  0  0  0  0  0  0  0  0
  1  2  2  0
  1  3  1  0
  3  4  1  0
  4  5  1  0
  6  1  1  0
  7  6  1  0
  6  8  1  0
  8  9  1  0
  9 10  1  0
  9 11  2  0
 10 12  1  0
 12 13  1  0
 13 14  2  0
 15 13  1  0
 14 16  1  0
 14 17  1  0
 18 15  2  0
 16 19  1  0
 16 20  2  0
 17 21  2  0
 21 18  1  0
  4 22  2  0
  4 23  1  0
 24 23  1  0
 24 25  1  0
 25 26  1  0
 25 27  1  0
 26 28  1  0
 27 29  1  0
 27 30  1  0
 30 28  1  0
 28 31  1  0
 30 32  1  0
 33 31  1  0
 34 31  1  0
 35 33  2  0
 33 36  1  0
 37 34  2  0
 38 35  1  0
 36 39  2  0
 36 37  1  0
 40 38  2  0
 40 39  1  0
 39 41  1  0
  6 42  1  6
  7 43  1  0
  7 44  1  0
  8 45  1  0
  8 46  1  0
 12 47  1  0
 12 48  1  0
 15 49  1  0
 17 50  1  0
 18 51  1  0
 21 52  1  0
 24 53  1  0
 24 54  1  0
 25 55  1  0
 27 56  1  0
 28 57  1  0
 29 58  1  0
 30 59  1  0
 32 60  1  0
 34 61  1  0
 38 62  1  0
 41 63  1  0
 41 64  1  0
M  CHG  3   5  -1  16   1  19  -1
M  END
>  <EmbedRMS>  (206) 
0.08764328345550172

$$$$

     RDKit          3D

 64 67  0  0  0  0  0  0  0  0999 V2000
   10.2846   43.7735   33.8085 C   0  0  0  0  0  0  0  0  0  0  0  0
   11.4105   43.5878   34.3569 O   0  0  0  0  0  0  0  0  0  0  0  0
    9.3662   42.7322   33.7039 O   0  0  0  0  0  0  0  0  0  0  0  0
    9.8855   41.2340   34.2838 P   0  0  0  0  0  5  0  0  0  0  0  0
   10.3670   41.4652   35.8742 O   0  0  0  0  0  1  0  0  0  0  0  0
    9.9596   45.1104   33.2396 C   0  0  2  0  0  0  0  0  0  0  0  0
   11.0667   46.0370   33.4842 N   0  0  0  0  0  0  0  0  0  0  0  0
    8.6418   45.6614   33.8210 C   0  0  0  0  0  0  0  0  0  0  0  0
    8.7373   45.9686   35.2862 C   0  0  0  0  0  0  0  0  0  0  0  0
    8.4818   44.9608   36.2237 O   0  0  0  0  0  0  0  0  0  0  0  0
    9.0622   47.1286   35.6611 O   0  0  0  0  0  0  0  0  0  0  0  0
    8.4791   45.1915   37.6331 C   0  0  0  0  0  0  0  0  0  0  0  0
    9.8745   45.4723   38.1492 C   0  0  0  0  0  0  0  0  0  0  0  0
   10.1318   46.4565   39.1403 C   0  0  0  0  0  0  0  0  0  0  0  0
   10.9494   44.7253   37.6345 C   0  0  0  0  0  0  0  0  0  0  0  0
    9.0706   47.1724   39.7927 N   0  0  0  0  0  4  0  0  0  0  0  0
   11.4604   46.7267   39.5114 C   0  0  0  0  0  0  0  0  0  0  0  0
   12.2601   44.9939   38.0299 C   0  0  0  0  0  0  0  0  0  0  0  0
    9.2606   48.4805   40.1744 O   0  0  0  0  0  1  0  0  0  0  0  0
    8.0701   46.5602   40.2199 O   0  0  0  0  0  0  0  0  0  0  0  0
   12.5164   46.0021   38.9570 C   0  0  0  0  0  0  0  0  0  0  0  0
    8.8077   40.1915   34.2076 O   0  0  0  0  0  0  0  0  0  0  0  0
   11.2368   40.7916   33.3657 O   0  0  0  0  0  0  0  0  0  0  0  0
   10.9130   40.6846   31.9932 C   0  0  0  0  0  0  0  0  0  0  0  0
   11.5173   39.3775   31.4397 C   0  0  0  0  0  0  0  0  0  0  0  0
   12.7475   39.0871   32.0759 O   0  0  0  0  0  0  0  0  0  0  0  0
   10.6068   38.1852   31.6658 C   0  0  0  0  0  0  0  0  0  0  0  0
   12.9371   37.6813   32.0291 C   0  0  0  0  0  0  0  0  0  0  0  0
    9.6403   38.0883   30.6476 O   0  0  0  0  0  0  0  0  0  0  0  0
   11.5789   37.0135   31.7046 C   0  0  0  0  0  0  0  0  0  0  0  0
   13.4915   37.2183   33.3239 N   0  0  0  0  0  0  0  0  0  0  0  0
   11.6125   36.3390   30.4674 O   0  0  0  0  0  0  0  0  0  0  0  0
   14.4766   36.3272   33.5730 C   0  0  0  0  0  0  0  0  0  0  0  0
   13.1184   37.6318   34.5691 C   0  0  0  0  0  0  0  0  0  0  0  0
   15.2066   35.6139   32.6740 N   0  0  0  0  0  0  0  0  0  0  0  0
   14.6735   36.2274   34.9184 C   0  0  0  0  0  0  0  0  0  0  0  0
   13.8228   37.0456   35.5785 N   0  0  0  0  0  0  0  0  0  0  0  0
   16.1637   34.7593   33.1548 C   0  0  0  0  0  0  0  0  0  0  0  0
   15.6517   35.3491   35.4132 C   0  0  0  0  0  0  0  0  0  0  0  0
   16.3792   34.6308   34.5043 N   0  0  0  0  0  0  0  0  0  0  0  0
   15.9004   35.1932   36.8090 N   0  0  0  0  0  0  0  0  0  0  0  0
    9.8255   44.9868   32.1413 H   0  0  0  0  0  0  0  0  0  0  0  0
   11.8939   45.7188   32.9273 H   0  0  0  0  0  0  0  0  0  0  0  0
   10.8083   46.9715   33.0913 H   0  0  0  0  0  0  0  0  0  0  0  0
    8.3613   46.5874   33.2729 H   0  0  0  0  0  0  0  0  0  0  0  0
    7.8200   44.9316   33.6548 H   0  0  0  0  0  0  0  0  0  0  0  0
    8.0891   44.2856   38.1420 H   0  0  0  0  0  0  0  0  0  0  0  0
    7.7835   46.0302   37.8419 H   0  0  0  0  0  0  0  0  0  0  0  0
   10.7728   43.9400   36.9133 H   0  0  0  0  0  0  0  0  0  0  0  0
   11.6772   47.4826   40.2557 H   0  0  0  0  0  0  0  0  0  0  0  0
   13.0786   44.4212   37.6132 H   0  0  0  0  0  0  0  0  0  0  0  0
   13.5342   46.2114   39.2601 H   0  0  0  0  0  0  0  0  0  0  0  0
   11.3840   41.5416   31.4660 H   0  0  0  0  0  0  0  0  0  0  0  0
    9.8227   40.7188   31.7575 H   0  0  0  0  0  0  0  0  0  0  0  0
   11.7005   39.5019   30.3473 H   0  0  0  0  0  0  0  0  0  0  0  0
   10.1096   38.2751   32.6606 H   0  0  0  0  0  0  0  0  0  0  0  0
   13.6713   37.4595   31.2228 H   0  0  0  0  0  0  0  0  0  0  0  0
    9.0032   37.3836   30.9351 H   0  0  0  0  0  0  0  0  0  0  0  0
   11.2706   36.3049   32.5089 H   0  0  0  0  0  0  0  0  0  0  0  0
   12.1444   35.5138   30.6141 H   0  0  0  0  0  0  0  0  0  0  0  0
   12.3362   38.3593   34.7445 H   0  0  0  0  0  0  0  0  0  0  0  0
   16.7570   34.1787   32.4620 H   0  0  0  0  0  0  0  0  0  0  0  0
   16.6363   34.5314   37.1415 H   0  0  0  0  0  0  0  0  0  0  0  0
   15.3532   35.7356   37.5139 H   0  0  0  0  0  0  0  0  0  0  0  0
  1  2  2  0
  1  3  1  0
  3  4  1  0
  4  5  1  0
  6  1  1  0
  7  6  1  0
  6  8  1  0
  8  9  1  0
  9 10  1  0
  9 11  2  0
 10 12  1  0
 12 13  1  0
 13 14  2  0
 15 13  1  0
 14 16  1  0
 14 17  1  0
 18 15  2  0
 16 19  1  0
 16 20  2  0
 17 21  2  0
 21 18  1  0
  4 22  2  0
  4 23  1  0
 24 23  1  0
 24 25  1  0
 25 26  1  0
 25 27  1  0
 26 28  1  0
 27 29  1  0
 27 30  1  0
 30 28  1  0
 28 31  1  0
 30 32  1  0
 33 31  1  0
 34 31  1  0
 35 33  2  0
 33 36  1  0
 37 34  2  0
 38 35  1  0
 36 39  2  0
 36 37  1  0
 40 38  2  0
 40 39  1  0
 39 41  1  0
  6 42  1  6
  7 43  1  0
  7 44  1  0
  8 45  1  0
  8 46  1  0
 12 47  1  0
 12 48  1  0
 15 49  1  0
 17 50  1  0
 18 51  1  0
 21 52  1  0
 24 53  1  0
 24 54  1  0
 25 55  1  0
 27 56  1  0
 28 57  1  0
 29 58  1  0
 30 59  1  0
 32 60  1  0
 34 61  1  0
 38 62  1  0
 41 63  1  0
 41 64  1  0
M  CHG  3   5  -1  16   1  19  -1
M  END
>  <EmbedRMS>  (207) 
0.08895161376436354

$$$$

     RDKit          3D

 64 67  0  0  0  0  0  0  0  0999 V2000
   10.2859   43.7717   33.8048 C   0  0  0  0  0  0  0  0  0  0  0  0
   11.4100   43.5861   34.3572 O   0  0  0  0  0  0  0  0  0  0  0  0
    9.3668   42.7311   33.7004 O   0  0  0  0  0  0  0  0  0  0  0  0
    9.8852   41.2343   34.2848 P   0  0  0  0  0  5  0  0  0  0  0  0
   10.3653   41.4705   35.8753 O   0  0  0  0  0  1  0  0  0  0  0  0
    9.9562   45.1130   33.2475 C   0  0  2  0  0  0  0  0  0  0  0  0
   11.0683   46.0357   33.4829 N   0  0  0  0  0  0  0  0  0  0  0  0
    8.6501   45.6625   33.8569 C   0  0  0  0  0  0  0  0  0  0  0  0
    8.7385   45.8493   35.3431 C   0  0  0  0  0  0  0  0  0  0  0  0
    9.3070   47.0206   35.8593 O   0  0  0  0  0  0  0  0  0  0  0  0
    8.3281   44.9385   36.1134 O   0  0  0  0  0  0  0  0  0  0  0  0
    9.3741   47.3128   37.2566 C   0  0  0  0  0  0  0  0  0  0  0  0
   10.6207   46.7620   37.9262 C   0  0  0  0  0  0  0  0  0  0  0  0
   10.9823   47.1754   39.2399 C   0  0  0  0  0  0  0  0  0  0  0  0
   11.4571   45.8492   37.2495 C   0  0  0  0  0  0  0  0  0  0  0  0
   10.1779   48.0963   40.0007 N   0  0  0  0  0  4  0  0  0  0  0  0
   12.1715   46.6896   39.8122 C   0  0  0  0  0  0  0  0  0  0  0  0
   12.6231   45.3680   37.8447 C   0  0  0  0  0  0  0  0  0  0  0  0
   10.7743   48.9343   40.9148 O   0  0  0  0  0  1  0  0  0  0  0  0
    8.9320   48.0319   39.9724 O   0  0  0  0  0  0  0  0  0  0  0  0
   12.9819   45.7900   39.1213 C   0  0  0  0  0  0  0  0  0  0  0  0
    8.8080   40.1911   34.2086 O   0  0  0  0  0  0  0  0  0  0  0  0
   11.2380   40.7907   33.3699 O   0  0  0  0  0  0  0  0  0  0  0  0
   10.9187   40.6906   31.9964 C   0  0  0  0  0  0  0  0  0  0  0  0
   11.5174   39.3825   31.4413 C   0  0  0  0  0  0  0  0  0  0  0  0
   12.7494   39.0893   32.0756 O   0  0  0  0  0  0  0  0  0  0  0  0
   10.6036   38.1900   31.6660 C   0  0  0  0  0  0  0  0  0  0  0  0
   12.9401   37.6834   32.0276 C   0  0  0  0  0  0  0  0  0  0  0  0
    9.6376   38.0785   30.6474 O   0  0  0  0  0  0  0  0  0  0  0  0
   11.5803   37.0204   31.6937 C   0  0  0  0  0  0  0  0  0  0  0  0
   13.4902   37.2177   33.3237 N   0  0  0  0  0  0  0  0  0  0  0  0
   11.6118   36.3193   30.4680 O   0  0  0  0  0  0  0  0  0  0  0  0
   14.4758   36.3271   33.5731 C   0  0  0  0  0  0  0  0  0  0  0  0
   13.1176   37.6318   34.5688 C   0  0  0  0  0  0  0  0  0  0  0  0
   15.2064   35.6142   32.6742 N   0  0  0  0  0  0  0  0  0  0  0  0
   14.6729   36.2274   34.9184 C   0  0  0  0  0  0  0  0  0  0  0  0
   13.8222   37.0458   35.5784 N   0  0  0  0  0  0  0  0  0  0  0  0
   16.1637   34.7597   33.1549 C   0  0  0  0  0  0  0  0  0  0  0  0
   15.6514   35.3493   35.4133 C   0  0  0  0  0  0  0  0  0  0  0  0
   16.3791   34.6312   34.5044 N   0  0  0  0  0  0  0  0  0  0  0  0
   15.9001   35.1935   36.8091 N   0  0  0  0  0  0  0  0  0  0  0  0
    9.8046   44.9996   32.1504 H   0  0  0  0  0  0  0  0  0  0  0  0
   10.8093   46.9726   33.0963 H   0  0  0  0  0  0  0  0  0  0  0  0
   11.8888   45.7165   32.9169 H   0  0  0  0  0  0  0  0  0  0  0  0
    7.8084   44.9755   33.6186 H   0  0  0  0  0  0  0  0  0  0  0  0
    8.4077   46.6401   33.3874 H   0  0  0  0  0  0  0  0  0  0  0  0
    9.3779   48.4181   37.3634 H   0  0  0  0  0  0  0  0  0  0  0  0
    8.4656   46.9246   37.7652 H   0  0  0  0  0  0  0  0  0  0  0  0
   11.2270   45.5092   36.2527 H   0  0  0  0  0  0  0  0  0  0  0  0
   12.4648   46.9962   40.8082 H   0  0  0  0  0  0  0  0  0  0  0  0
   13.2543   44.6698   37.3097 H   0  0  0  0  0  0  0  0  0  0  0  0
   13.8897   45.4179   39.5785 H   0  0  0  0  0  0  0  0  0  0  0  0
   11.3996   41.5456   31.4749 H   0  0  0  0  0  0  0  0  0  0  0  0
    9.8309   40.7398   31.7563 H   0  0  0  0  0  0  0  0  0  0  0  0
   11.6988   39.5093   30.3491 H   0  0  0  0  0  0  0  0  0  0  0  0
   10.1130   38.2589   32.6664 H   0  0  0  0  0  0  0  0  0  0  0  0
   13.6800   37.4628   31.2266 H   0  0  0  0  0  0  0  0  0  0  0  0
    8.8953   38.6909   30.8891 H   0  0  0  0  0  0  0  0  0  0  0  0
   11.2831   36.3060   32.4929 H   0  0  0  0  0  0  0  0  0  0  0  0
   11.8859   36.9590   29.7593 H   0  0  0  0  0  0  0  0  0  0  0  0
   12.3361   38.3601   34.7442 H   0  0  0  0  0  0  0  0  0  0  0  0
   16.7572   34.1793   32.4621 H   0  0  0  0  0  0  0  0  0  0  0  0
   15.3528   35.7357   37.5140 H   0  0  0  0  0  0  0  0  0  0  0  0
   16.6362   34.5318   37.1416 H   0  0  0  0  0  0  0  0  0  0  0  0
  1  2  2  0
  1  3  1  0
  3  4  1  0
  4  5  1  0
  6  1  1  0
  7  6  1  0
  6  8  1  0
  8  9  1  0
  9 10  1  0
  9 11  2  0
 10 12  1  0
 12 13  1  0
 13 14  2  0
 15 13  1  0
 14 16  1  0
 14 17  1  0
 18 15  2  0
 16 19  1  0
 16 20  2  0
 17 21  2  0
 21 18  1  0
  4 22  2  0
  4 23  1  0
 24 23  1  0
 24 25  1  0
 25 26  1  0
 25 27  1  0
 26 28  1  0
 27 29  1  0
 27 30  1  0
 30 28  1  0
 28 31  1  0
 30 32  1  0
 33 31  1  0
 34 31  1  0
 35 33  2  0
 33 36  1  0
 37 34  2  0
 38 35  1  0
 36 39  2  0
 36 37  1  0
 40 38  2  0
 40 39  1  0
 39 41  1  0
  6 42  1  6
  7 43  1  0
  7 44  1  0
  8 45  1  0
  8 46  1  0
 12 47  1  0
 12 48  1  0
 15 49  1  0
 17 50  1  0
 18 51  1  0
 21 52  1  0
 24 53  1  0
 24 54  1  0
 25 55  1  0
 27 56  1  0
 28 57  1  0
 29 58  1  0
 30 59  1  0
 32 60  1  0
 34 61  1  0
 38 62  1  0
 41 63  1  0
 41 64  1  0
M  CHG  3   5  -1  16   1  19  -1
M  END
>  <EmbedRMS>  (208) 
0.08819147662141937

$$$$

     RDKit          3D

 64 67  0  0  0  0  0  0  0  0999 V2000
   10.2881   43.7705   33.7994 C   0  0  0  0  0  0  0  0  0  0  0  0
   11.4092   43.5875   34.3587 O   0  0  0  0  0  0  0  0  0  0  0  0
    9.3676   42.7305   33.6985 O   0  0  0  0  0  0  0  0  0  0  0  0
    9.8850   41.2343   34.2853 P   0  0  0  0  0  5  0  0  0  0  0  0
   10.3684   41.4702   35.8742 O   0  0  0  0  0  1  0  0  0  0  0  0
    9.9571   45.1132   33.2443 C   0  0  2  0  0  0  0  0  0  0  0  0
   11.0658   46.0373   33.4893 N   0  0  0  0  0  0  0  0  0  0  0  0
    8.6472   45.6596   33.8493 C   0  0  0  0  0  0  0  0  0  0  0  0
    8.7205   45.8069   35.3405 C   0  0  0  0  0  0  0  0  0  0  0  0
    8.6555   44.6634   36.1400 O   0  0  0  0  0  0  0  0  0  0  0  0
    8.8607   46.9489   35.8570 O   0  0  0  0  0  0  0  0  0  0  0  0
    8.6725   44.7031   37.5622 C   0  0  0  0  0  0  0  0  0  0  0  0
    8.6744   43.2943   38.1026 C   0  0  0  0  0  0  0  0  0  0  0  0
    7.7069   42.3303   37.7049 C   0  0  0  0  0  0  0  0  0  0  0  0
    9.6992   42.9120   38.9882 C   0  0  0  0  0  0  0  0  0  0  0  0
    6.6244   42.6561   36.8142 N   0  0  0  0  0  4  0  0  0  0  0  0
    7.8224   41.0104   38.1755 C   0  0  0  0  0  0  0  0  0  0  0  0
    9.7839   41.6003   39.4565 C   0  0  0  0  0  0  0  0  0  0  0  0
    6.1141   41.6943   35.9729 O   0  0  0  0  0  1  0  0  0  0  0  0
    6.0330   43.7515   36.9019 O   0  0  0  0  0  0  0  0  0  0  0  0
    8.8513   40.6502   39.0463 C   0  0  0  0  0  0  0  0  0  0  0  0
    8.8072   40.1916   34.2110 O   0  0  0  0  0  0  0  0  0  0  0  0
   11.2372   40.7894   33.3702 O   0  0  0  0  0  0  0  0  0  0  0  0
   10.9181   40.6902   31.9967 C   0  0  0  0  0  0  0  0  0  0  0  0
   11.5172   39.3824   31.4413 C   0  0  0  0  0  0  0  0  0  0  0  0
   12.7493   39.0894   32.0756 O   0  0  0  0  0  0  0  0  0  0  0  0
   10.6035   38.1899   31.6660 C   0  0  0  0  0  0  0  0  0  0  0  0
   12.9400   37.6835   32.0277 C   0  0  0  0  0  0  0  0  0  0  0  0
    9.6376   38.0784   30.6474 O   0  0  0  0  0  0  0  0  0  0  0  0
   11.5803   37.0204   31.6937 C   0  0  0  0  0  0  0  0  0  0  0  0
   13.4901   37.2178   33.3238 N   0  0  0  0  0  0  0  0  0  0  0  0
   11.6118   36.3193   30.4680 O   0  0  0  0  0  0  0  0  0  0  0  0
   14.4758   36.3272   33.5731 C   0  0  0  0  0  0  0  0  0  0  0  0
   13.1175   37.6318   34.5689 C   0  0  0  0  0  0  0  0  0  0  0  0
   15.2063   35.6142   32.6742 N   0  0  0  0  0  0  0  0  0  0  0  0
   14.6729   36.2275   34.9185 C   0  0  0  0  0  0  0  0  0  0  0  0
   13.8221   37.0458   35.5784 N   0  0  0  0  0  0  0  0  0  0  0  0
   16.1636   34.7597   33.1549 C   0  0  0  0  0  0  0  0  0  0  0  0
   15.6513   35.3493   35.4133 C   0  0  0  0  0  0  0  0  0  0  0  0
   16.3790   34.6312   34.5044 N   0  0  0  0  0  0  0  0  0  0  0  0
   15.9001   35.1935   36.8091 N   0  0  0  0  0  0  0  0  0  0  0  0
    9.8113   45.0034   32.1461 H   0  0  0  0  0  0  0  0  0  0  0  0
   11.8894   45.7224   32.9252 H   0  0  0  0  0  0  0  0  0  0  0  0
   10.8066   46.9751   33.1049 H   0  0  0  0  0  0  0  0  0  0  0  0
    7.8082   44.9742   33.6001 H   0  0  0  0  0  0  0  0  0  0  0  0
    8.4074   46.6424   33.3877 H   0  0  0  0  0  0  0  0  0  0  0  0
    7.7836   45.2502   37.9412 H   0  0  0  0  0  0  0  0  0  0  0  0
    9.5768   45.2578   37.8966 H   0  0  0  0  0  0  0  0  0  0  0  0
   10.4469   43.6272   39.3083 H   0  0  0  0  0  0  0  0  0  0  0  0
    7.1026   40.2584   37.8782 H   0  0  0  0  0  0  0  0  0  0  0  0
   10.5806   41.3181   40.1327 H   0  0  0  0  0  0  0  0  0  0  0  0
    8.9234   39.6320   39.4062 H   0  0  0  0  0  0  0  0  0  0  0  0
   11.3989   41.5455   31.4756 H   0  0  0  0  0  0  0  0  0  0  0  0
    9.8302   40.7391   31.7567 H   0  0  0  0  0  0  0  0  0  0  0  0
   11.6985   39.5095   30.3491 H   0  0  0  0  0  0  0  0  0  0  0  0
   10.1128   38.2587   32.6665 H   0  0  0  0  0  0  0  0  0  0  0  0
   13.6800   37.4629   31.2266 H   0  0  0  0  0  0  0  0  0  0  0  0
    8.8949   38.6903   30.8894 H   0  0  0  0  0  0  0  0  0  0  0  0
   11.2831   36.3060   32.4929 H   0  0  0  0  0  0  0  0  0  0  0  0
   11.8859   36.9590   29.7593 H   0  0  0  0  0  0  0  0  0  0  0  0
   12.3359   38.3600   34.7443 H   0  0  0  0  0  0  0  0  0  0  0  0
   16.7571   34.1793   32.4621 H   0  0  0  0  0  0  0  0  0  0  0  0
   15.3528   35.7356   37.5140 H   0  0  0  0  0  0  0  0  0  0  0  0
   16.6362   34.5318   37.1416 H   0  0  0  0  0  0  0  0  0  0  0  0
  1  2  2  0
  1  3  1  0
  3  4  1  0
  4  5  1  0
  6  1  1  0
  7  6  1  0
  6  8  1  0
  8  9  1  0
  9 10  1  0
  9 11  2  0
 10 12  1  0
 12 13  1  0
 13 14  2  0
 15 13  1  0
 14 16  1  0
 14 17  1  0
 18 15  2  0
 16 19  1  0
 16 20  2  0
 17 21  2  0
 21 18  1  0
  4 22  2  0
  4 23  1  0
 24 23  1  0
 24 25  1  0
 25 26  1  0
 25 27  1  0
 26 28  1  0
 27 29  1  0
 27 30  1  0
 30 28  1  0
 28 31  1  0
 30 32  1  0
 33 31  1  0
 34 31  1  0
 35 33  2  0
 33 36  1  0
 37 34  2  0
 38 35  1  0
 36 39  2  0
 36 37  1  0
 40 38  2  0
 40 39  1  0
 39 41  1  0
  6 42  1  6
  7 43  1  0
  7 44  1  0
  8 45  1  0
  8 46  1  0
 12 47  1  0
 12 48  1  0
 15 49  1  0
 17 50  1  0
 18 51  1  0
 21 52  1  0
 24 53  1  0
 24 54  1  0
 25 55  1  0
 27 56  1  0
 28 57  1  0
 29 58  1  0
 30 59  1  0
 32 60  1  0
 34 61  1  0
 38 62  1  0
 41 63  1  0
 41 64  1  0
M  CHG  3   5  -1  16   1  19  -1
M  END
>  <EmbedRMS>  (209) 
0.08821342119121806

$$$$

     RDKit          3D

 64 67  0  0  0  0  0  0  0  0999 V2000
   10.2873   43.7711   33.8021 C   0  0  0  0  0  0  0  0  0  0  0  0
   11.4094   43.5878   34.3593 O   0  0  0  0  0  0  0  0  0  0  0  0
    9.3681   42.7305   33.6979 O   0  0  0  0  0  0  0  0  0  0  0  0
    9.8853   41.2342   34.2842 P   0  0  0  0  0  5  0  0  0  0  0  0
   10.3652   41.4712   35.8747 O   0  0  0  0  0  1  0  0  0  0  0  0
    9.9519   45.1155   33.2556 C   0  0  2  0  0  0  0  0  0  0  0  0
   11.0707   46.0335   33.4778 N   0  0  0  0  0  0  0  0  0  0  0  0
    8.6625   45.6647   33.8994 C   0  0  0  0  0  0  0  0  0  0  0  0
    8.7964   45.8358   35.3834 C   0  0  0  0  0  0  0  0  0  0  0  0
    8.5532   44.7435   36.2235 O   0  0  0  0  0  0  0  0  0  0  0  0
    9.1631   46.9458   35.8558 O   0  0  0  0  0  0  0  0  0  0  0  0
    8.6941   44.7925   37.6421 C   0  0  0  0  0  0  0  0  0  0  0  0
    7.6109   45.6470   38.2608 C   0  0  0  0  0  0  0  0  0  0  0  0
    7.8846   46.6874   39.1883 C   0  0  0  0  0  0  0  0  0  0  0  0
    6.2728   45.3248   37.9699 C   0  0  0  0  0  0  0  0  0  0  0  0
    9.2248   47.0733   39.5266 N   0  0  0  0  0  4  0  0  0  0  0  0
    6.8147   47.3598   39.8027 C   0  0  0  0  0  0  0  0  0  0  0  0
    5.2238   46.0175   38.5760 C   0  0  0  0  0  0  0  0  0  0  0  0
    9.5360   47.3723   40.8329 O   0  0  0  0  0  1  0  0  0  0  0  0
   10.0280   47.3977   38.6283 O   0  0  0  0  0  0  0  0  0  0  0  0
    5.4942   47.0307   39.4937 C   0  0  0  0  0  0  0  0  0  0  0  0
    8.8075   40.1916   34.2090 O   0  0  0  0  0  0  0  0  0  0  0  0
   11.2371   40.7891   33.3689 O   0  0  0  0  0  0  0  0  0  0  0  0
   10.9162   40.6888   31.9955 C   0  0  0  0  0  0  0  0  0  0  0  0
   11.5252   39.3872   31.4365 C   0  0  0  0  0  0  0  0  0  0  0  0
   12.7487   39.0878   32.0802 O   0  0  0  0  0  0  0  0  0  0  0  0
   10.6101   38.1909   31.6471 C   0  0  0  0  0  0  0  0  0  0  0  0
   12.9348   37.6807   32.0292 C   0  0  0  0  0  0  0  0  0  0  0  0
    9.6127   38.0875   30.6547 O   0  0  0  0  0  0  0  0  0  0  0  0
   11.5767   37.0133   31.7025 C   0  0  0  0  0  0  0  0  0  0  0  0
   13.4901   37.2165   33.3236 N   0  0  0  0  0  0  0  0  0  0  0  0
   11.6321   36.3231   30.4741 O   0  0  0  0  0  0  0  0  0  0  0  0
   14.4763   36.3266   33.5727 C   0  0  0  0  0  0  0  0  0  0  0  0
   13.1179   37.6307   34.5689 C   0  0  0  0  0  0  0  0  0  0  0  0
   15.2065   35.6135   32.6739 N   0  0  0  0  0  0  0  0  0  0  0  0
   14.6736   36.2272   34.9182 C   0  0  0  0  0  0  0  0  0  0  0  0
   13.8228   37.0453   35.5783 N   0  0  0  0  0  0  0  0  0  0  0  0
   16.1640   34.7592   33.1547 C   0  0  0  0  0  0  0  0  0  0  0  0
   15.6518   35.3491   35.4131 C   0  0  0  0  0  0  0  0  0  0  0  0
   16.3795   34.6309   34.5042 N   0  0  0  0  0  0  0  0  0  0  0  0
   15.9004   35.1933   36.8089 N   0  0  0  0  0  0  0  0  0  0  0  0
    9.7776   45.0096   32.1612 H   0  0  0  0  0  0  0  0  0  0  0  0
   11.8805   45.7139   32.8967 H   0  0  0  0  0  0  0  0  0  0  0  0
   10.8083   46.9725   33.0987 H   0  0  0  0  0  0  0  0  0  0  0  0
    7.8158   44.9755   33.6896 H   0  0  0  0  0  0  0  0  0  0  0  0
    8.4041   46.6420   33.4363 H   0  0  0  0  0  0  0  0  0  0  0  0
    8.5873   43.7604   38.0373 H   0  0  0  0  0  0  0  0  0  0  0  0
    9.7195   45.1190   37.9009 H   0  0  0  0  0  0  0  0  0  0  0  0
    6.0411   44.5237   37.2784 H   0  0  0  0  0  0  0  0  0  0  0  0
    7.0062   48.1544   40.5129 H   0  0  0  0  0  0  0  0  0  0  0  0
    4.1989   45.7601   38.3416 H   0  0  0  0  0  0  0  0  0  0  0  0
    4.6791   47.5625   39.9674 H   0  0  0  0  0  0  0  0  0  0  0  0
    9.8263   40.7205   31.7579 H   0  0  0  0  0  0  0  0  0  0  0  0
   11.3852   41.5506   31.4742 H   0  0  0  0  0  0  0  0  0  0  0  0
   11.7273   39.5288   30.3503 H   0  0  0  0  0  0  0  0  0  0  0  0
   10.1122   38.2731   32.6390 H   0  0  0  0  0  0  0  0  0  0  0  0
   13.6686   37.4590   31.2224 H   0  0  0  0  0  0  0  0  0  0  0  0
   10.0514   38.1111   29.7648 H   0  0  0  0  0  0  0  0  0  0  0  0
   11.2801   36.3128   32.5195 H   0  0  0  0  0  0  0  0  0  0  0  0
   10.8624   35.6960   30.4645 H   0  0  0  0  0  0  0  0  0  0  0  0
   12.3356   38.3581   34.7445 H   0  0  0  0  0  0  0  0  0  0  0  0
   16.7575   34.1787   32.4620 H   0  0  0  0  0  0  0  0  0  0  0  0
   15.3531   35.7355   37.5138 H   0  0  0  0  0  0  0  0  0  0  0  0
   16.6364   34.5315   37.1415 H   0  0  0  0  0  0  0  0  0  0  0  0
  1  2  2  0
  1  3  1  0
  3  4  1  0
  4  5  1  0
  6  1  1  0
  7  6  1  0
  6  8  1  0
  8  9  1  0
  9 10  1  0
  9 11  2  0
 10 12  1  0
 12 13  1  0
 13 14  2  0
 15 13  1  0
 14 16  1  0
 14 17  1  0
 18 15  2  0
 16 19  1  0
 16 20  2  0
 17 21  2  0
 21 18  1  0
  4 22  2  0
  4 23  1  0
 24 23  1  0
 24 25  1  0
 25 26  1  0
 25 27  1  0
 26 28  1  0
 27 29  1  0
 27 30  1  0
 30 28  1  0
 28 31  1  0
 30 32  1  0
 33 31  1  0
 34 31  1  0
 35 33  2  0
 33 36  1  0
 37 34  2  0
 38 35  1  0
 36 39  2  0
 36 37  1  0
 40 38  2  0
 40 39  1  0
 39 41  1  0
  6 42  1  6
  7 43  1  0
  7 44  1  0
  8 45  1  0
  8 46  1  0
 12 47  1  0
 12 48  1  0
 15 49  1  0
 17 50  1  0
 18 51  1  0
 21 52  1  0
 24 53  1  0
 24 54  1  0
 25 55  1  0
 27 56  1  0
 28 57  1  0
 29 58  1  0
 30 59  1  0
 32 60  1  0
 34 61  1  0
 38 62  1  0
 41 63  1  0
 41 64  1  0
M  CHG  3   5  -1  16   1  19  -1
M  END
>  <EmbedRMS>  (210) 
0.0881641027538227

$$$$

     RDKit          3D

 64 67  0  0  0  0  0  0  0  0999 V2000
   10.2868   43.7712   33.8024 C   0  0  0  0  0  0  0  0  0  0  0  0
   11.4089   43.5879   34.3601 O   0  0  0  0  0  0  0  0  0  0  0  0
    9.3676   42.7307   33.6984 O   0  0  0  0  0  0  0  0  0  0  0  0
    9.8854   41.2343   34.2843 P   0  0  0  0  0  5  0  0  0  0  0  0
   10.3646   41.4702   35.8748 O   0  0  0  0  0  1  0  0  0  0  0  0
    9.9502   45.1170   33.2584 C   0  0  2  0  0  0  0  0  0  0  0  0
   11.0730   46.0310   33.4748 N   0  0  0  0  0  0  0  0  0  0  0  0
    8.6658   45.6703   33.9121 C   0  0  0  0  0  0  0  0  0  0  0  0
    8.7864   45.7554   35.4046 C   0  0  0  0  0  0  0  0  0  0  0  0
    9.5570   46.7728   35.9769 O   0  0  0  0  0  0  0  0  0  0  0  0
    8.2376   44.8791   36.1267 O   0  0  0  0  0  0  0  0  0  0  0  0
   10.0364   46.7251   37.3188 C   0  0  0  0  0  0  0  0  0  0  0  0
   11.1525   45.7134   37.4327 C   0  0  0  0  0  0  0  0  0  0  0  0
   12.4837   45.9953   37.0159 C   0  0  0  0  0  0  0  0  0  0  0  0
   10.8503   44.4403   37.9501 C   0  0  0  0  0  0  0  0  0  0  0  0
   12.8667   47.2724   36.4699 N   0  0  0  0  0  4  0  0  0  0  0  0
   13.4680   45.0005   37.1602 C   0  0  0  0  0  0  0  0  0  0  0  0
   11.8410   43.4662   38.0724 C   0  0  0  0  0  0  0  0  0  0  0  0
   14.1607   47.7185   36.6120 O   0  0  0  0  0  1  0  0  0  0  0  0
   12.0910   47.9171   35.7356 O   0  0  0  0  0  0  0  0  0  0  0  0
   13.1472   43.7459   37.6794 C   0  0  0  0  0  0  0  0  0  0  0  0
    8.8081   40.1913   34.2080 O   0  0  0  0  0  0  0  0  0  0  0  0
   11.2383   40.7904   33.3700 O   0  0  0  0  0  0  0  0  0  0  0  0
   10.9192   40.6906   31.9964 C   0  0  0  0  0  0  0  0  0  0  0  0
   11.5176   39.3825   31.4413 C   0  0  0  0  0  0  0  0  0  0  0  0
   12.7496   39.0893   32.0756 O   0  0  0  0  0  0  0  0  0  0  0  0
   10.6037   38.1900   31.6660 C   0  0  0  0  0  0  0  0  0  0  0  0
   12.9401   37.6834   32.0276 C   0  0  0  0  0  0  0  0  0  0  0  0
    9.6377   38.0786   30.6475 O   0  0  0  0  0  0  0  0  0  0  0  0
   11.5804   37.0204   31.6937 C   0  0  0  0  0  0  0  0  0  0  0  0
   13.4902   37.2178   33.3238 N   0  0  0  0  0  0  0  0  0  0  0  0
   11.6117   36.3194   30.4681 O   0  0  0  0  0  0  0  0  0  0  0  0
   14.4758   36.3271   33.5731 C   0  0  0  0  0  0  0  0  0  0  0  0
   13.1176   37.6319   34.5688 C   0  0  0  0  0  0  0  0  0  0  0  0
   15.2064   35.6142   32.6742 N   0  0  0  0  0  0  0  0  0  0  0  0
   14.6729   36.2274   34.9185 C   0  0  0  0  0  0  0  0  0  0  0  0
   13.8222   37.0458   35.5784 N   0  0  0  0  0  0  0  0  0  0  0  0
   16.1637   34.7597   33.1549 C   0  0  0  0  0  0  0  0  0  0  0  0
   15.6514   35.3493   35.4133 C   0  0  0  0  0  0  0  0  0  0  0  0
   16.3791   34.6312   34.5044 N   0  0  0  0  0  0  0  0  0  0  0  0
   15.9001   35.1935   36.8091 N   0  0  0  0  0  0  0  0  0  0  0  0
    9.7693   45.0140   32.1648 H   0  0  0  0  0  0  0  0  0  0  0  0
   11.8820   45.7051   32.8962 H   0  0  0  0  0  0  0  0  0  0  0  0
   10.8153   46.9694   33.0910 H   0  0  0  0  0  0  0  0  0  0  0  0
    8.4474   46.6827   33.5096 H   0  0  0  0  0  0  0  0  0  0  0  0
    7.8033   45.0214   33.6434 H   0  0  0  0  0  0  0  0  0  0  0  0
    9.1999   46.4881   38.0126 H   0  0  0  0  0  0  0  0  0  0  0  0
   10.4052   47.7295   37.6133 H   0  0  0  0  0  0  0  0  0  0  0  0
    9.8427   44.1996   38.2656 H   0  0  0  0  0  0  0  0  0  0  0  0
   14.4883   45.1906   36.8524 H   0  0  0  0  0  0  0  0  0  0  0  0
   11.5945   42.4915   38.4735 H   0  0  0  0  0  0  0  0  0  0  0  0
   13.9139   42.9879   37.7749 H   0  0  0  0  0  0  0  0  0  0  0  0
   11.4004   41.5455   31.4751 H   0  0  0  0  0  0  0  0  0  0  0  0
    9.8314   40.7400   31.7560 H   0  0  0  0  0  0  0  0  0  0  0  0
   11.6990   39.5093   30.3490 H   0  0  0  0  0  0  0  0  0  0  0  0
   10.1131   38.2590   32.6665 H   0  0  0  0  0  0  0  0  0  0  0  0
   13.6801   37.4627   31.2266 H   0  0  0  0  0  0  0  0  0  0  0  0
    8.8955   38.6912   30.8891 H   0  0  0  0  0  0  0  0  0  0  0  0
   11.2830   36.3061   32.4930 H   0  0  0  0  0  0  0  0  0  0  0  0
   11.8859   36.9590   29.7593 H   0  0  0  0  0  0  0  0  0  0  0  0
   12.3362   38.3603   34.7442 H   0  0  0  0  0  0  0  0  0  0  0  0
   16.7572   34.1793   32.4621 H   0  0  0  0  0  0  0  0  0  0  0  0
   15.3528   35.7357   37.5140 H   0  0  0  0  0  0  0  0  0  0  0  0
   16.6362   34.5318   37.1416 H   0  0  0  0  0  0  0  0  0  0  0  0
  1  2  2  0
  1  3  1  0
  3  4  1  0
  4  5  1  0
  6  1  1  0
  7  6  1  0
  6  8  1  0
  8  9  1  0
  9 10  1  0
  9 11  2  0
 10 12  1  0
 12 13  1  0
 13 14  2  0
 15 13  1  0
 14 16  1  0
 14 17  1  0
 18 15  2  0
 16 19  1  0
 16 20  2  0
 17 21  2  0
 21 18  1  0
  4 22  2  0
  4 23  1  0
 24 23  1  0
 24 25  1  0
 25 26  1  0
 25 27  1  0
 26 28  1  0
 27 29  1  0
 27 30  1  0
 30 28  1  0
 28 31  1  0
 30 32  1  0
 33 31  1  0
 34 31  1  0
 35 33  2  0
 33 36  1  0
 37 34  2  0
 38 35  1  0
 36 39  2  0
 36 37  1  0
 40 38  2  0
 40 39  1  0
 39 41  1  0
  6 42  1  6
  7 43  1  0
  7 44  1  0
  8 45  1  0
  8 46  1  0
 12 47  1  0
 12 48  1  0
 15 49  1  0
 17 50  1  0
 18 51  1  0
 21 52  1  0
 24 53  1  0
 24 54  1  0
 25 55  1  0
 27 56  1  0
 28 57  1  0
 29 58  1  0
 30 59  1  0
 32 60  1  0
 34 61  1  0
 38 62  1  0
 41 63  1  0
 41 64  1  0
M  CHG  3   5  -1  16   1  19  -1
M  END
>  <EmbedRMS>  (211) 
0.08834091161411121

$$$$

     RDKit          3D

 64 67  0  0  0  0  0  0  0  0999 V2000
   10.2827   43.7715   33.8170 C   0  0  0  0  0  0  0  0  0  0  0  0
   11.4062   43.5817   34.3689 O   0  0  0  0  0  0  0  0  0  0  0  0
    9.3630   42.7322   33.7084 O   0  0  0  0  0  0  0  0  0  0  0  0
    9.8843   41.2328   34.2843 P   0  0  0  0  0  5  0  0  0  0  0  0
   10.3722   41.4626   35.8720 O   0  0  0  0  0  1  0  0  0  0  0  0
    9.9762   45.1044   33.2230 C   0  0  2  0  0  0  0  0  0  0  0  0
   11.0591   46.0564   33.4836 N   0  0  0  0  0  0  0  0  0  0  0  0
    8.6217   45.6671   33.6951 C   0  0  0  0  0  0  0  0  0  0  0  0
    8.5386   45.8586   35.1805 C   0  0  0  0  0  0  0  0  0  0  0  0
    7.8101   44.9465   35.9524 O   0  0  0  0  0  0  0  0  0  0  0  0
    9.1021   46.8514   35.7164 O   0  0  0  0  0  0  0  0  0  0  0  0
    7.7083   45.0243   37.3730 C   0  0  0  0  0  0  0  0  0  0  0  0
    8.9177   44.3971   38.0207 C   0  0  0  0  0  0  0  0  0  0  0  0
    9.0029   43.0014   38.2697 C   0  0  0  0  0  0  0  0  0  0  0  0
    9.9859   45.2298   38.3998 C   0  0  0  0  0  0  0  0  0  0  0  0
    7.9600   42.0928   37.8700 N   0  0  0  0  0  4  0  0  0  0  0  0
   10.1381   42.4927   38.9281 C   0  0  0  0  0  0  0  0  0  0  0  0
   11.1114   44.7013   39.0326 C   0  0  0  0  0  0  0  0  0  0  0  0
    7.3245   42.2435   36.6594 O   0  0  0  0  0  1  0  0  0  0  0  0
    7.7441   41.0580   38.5342 O   0  0  0  0  0  0  0  0  0  0  0  0
   11.1850   43.3363   39.3012 C   0  0  0  0  0  0  0  0  0  0  0  0
    8.8074   40.1895   34.2089 O   0  0  0  0  0  0  0  0  0  0  0  0
   11.2368   40.7923   33.3676 O   0  0  0  0  0  0  0  0  0  0  0  0
   10.9171   40.6906   31.9947 C   0  0  0  0  0  0  0  0  0  0  0  0
   11.5169   39.3823   31.4409 C   0  0  0  0  0  0  0  0  0  0  0  0
   12.7488   39.0896   32.0758 O   0  0  0  0  0  0  0  0  0  0  0  0
   10.6033   38.1898   31.6659 C   0  0  0  0  0  0  0  0  0  0  0  0
   12.9399   37.6837   32.0277 C   0  0  0  0  0  0  0  0  0  0  0  0
    9.6374   38.0782   30.6474 O   0  0  0  0  0  0  0  0  0  0  0  0
   11.5803   37.0204   31.6937 C   0  0  0  0  0  0  0  0  0  0  0  0
   13.4901   37.2180   33.3238 N   0  0  0  0  0  0  0  0  0  0  0  0
   11.6119   36.3193   30.4681 O   0  0  0  0  0  0  0  0  0  0  0  0
   14.4758   36.3273   33.5731 C   0  0  0  0  0  0  0  0  0  0  0  0
   13.1175   37.6319   34.5689 C   0  0  0  0  0  0  0  0  0  0  0  0
   15.2063   35.6143   32.6742 N   0  0  0  0  0  0  0  0  0  0  0  0
   14.6729   36.2275   34.9184 C   0  0  0  0  0  0  0  0  0  0  0  0
   13.8221   37.0458   35.5784 N   0  0  0  0  0  0  0  0  0  0  0  0
   16.1636   34.7598   33.1549 C   0  0  0  0  0  0  0  0  0  0  0  0
   15.6513   35.3493   35.4132 C   0  0  0  0  0  0  0  0  0  0  0  0
   16.3790   34.6312   34.5043 N   0  0  0  0  0  0  0  0  0  0  0  0
   15.9001   35.1935   36.8091 N   0  0  0  0  0  0  0  0  0  0  0  0
    9.9030   44.9619   32.1221 H   0  0  0  0  0  0  0  0  0  0  0  0
   11.9216   45.7397   32.9825 H   0  0  0  0  0  0  0  0  0  0  0  0
   11.2783   46.0931   34.5061 H   0  0  0  0  0  0  0  0  0  0  0  0
    8.4401   46.6438   33.1962 H   0  0  0  0  0  0  0  0  0  0  0  0
    7.8066   44.9836   33.3718 H   0  0  0  0  0  0  0  0  0  0  0  0
    7.5825   46.0821   37.6940 H   0  0  0  0  0  0  0  0  0  0  0  0
    6.7876   44.4992   37.7014 H   0  0  0  0  0  0  0  0  0  0  0  0
    9.9433   46.2963   38.2180 H   0  0  0  0  0  0  0  0  0  0  0  0
   10.2234   41.4328   39.1321 H   0  0  0  0  0  0  0  0  0  0  0  0
   11.9252   45.3536   39.3221 H   0  0  0  0  0  0  0  0  0  0  0  0
   12.0574   42.9292   39.7960 H   0  0  0  0  0  0  0  0  0  0  0  0
    9.8290   40.7389   31.7553 H   0  0  0  0  0  0  0  0  0  0  0  0
   11.3970   41.5455   31.4721 H   0  0  0  0  0  0  0  0  0  0  0  0
   11.6987   39.5086   30.3486 H   0  0  0  0  0  0  0  0  0  0  0  0
   10.1128   38.2588   32.6663 H   0  0  0  0  0  0  0  0  0  0  0  0
   13.6799   37.4634   31.2266 H   0  0  0  0  0  0  0  0  0  0  0  0
    8.8944   38.6895   30.8896 H   0  0  0  0  0  0  0  0  0  0  0  0
   11.2831   36.3060   32.4929 H   0  0  0  0  0  0  0  0  0  0  0  0
   11.8860   36.9589   29.7593 H   0  0  0  0  0  0  0  0  0  0  0  0
   12.3360   38.3602   34.7443 H   0  0  0  0  0  0  0  0  0  0  0  0
   16.7571   34.1794   32.4621 H   0  0  0  0  0  0  0  0  0  0  0  0
   16.6361   34.5318   37.1415 H   0  0  0  0  0  0  0  0  0  0  0  0
   15.3528   35.7357   37.5140 H   0  0  0  0  0  0  0  0  0  0  0  0
  1  2  2  0
  1  3  1  0
  3  4  1  0
  4  5  1  0
  6  1  1  0
  7  6  1  0
  6  8  1  0
  8  9  1  0
  9 10  1  0
  9 11  2  0
 10 12  1  0
 12 13  1  0
 13 14  2  0
 15 13  1  0
 14 16  1  0
 14 17  1  0
 18 15  2  0
 16 19  1  0
 16 20  2  0
 17 21  2  0
 21 18  1  0
  4 22  2  0
  4 23  1  0
 24 23  1  0
 24 25  1  0
 25 26  1  0
 25 27  1  0
 26 28  1  0
 27 29  1  0
 27 30  1  0
 30 28  1  0
 28 31  1  0
 30 32  1  0
 33 31  1  0
 34 31  1  0
 35 33  2  0
 33 36  1  0
 37 34  2  0
 38 35  1  0
 36 39  2  0
 36 37  1  0
 40 38  2  0
 40 39  1  0
 39 41  1  0
  6 42  1  6
  7 43  1  0
  7 44  1  0
  8 45  1  0
  8 46  1  0
 12 47  1  0
 12 48  1  0
 15 49  1  0
 17 50  1  0
 18 51  1  0
 21 52  1  0
 24 53  1  0
 24 54  1  0
 25 55  1  0
 27 56  1  0
 28 57  1  0
 29 58  1  0
 30 59  1  0
 32 60  1  0
 34 61  1  0
 38 62  1  0
 41 63  1  0
 41 64  1  0
M  CHG  3   5  -1  16   1  19  -1
M  END
>  <EmbedRMS>  (212) 
0.0888130615953003

$$$$

     RDKit          3D

 64 67  0  0  0  0  0  0  0  0999 V2000
   10.2863   43.7709   33.8098 C   0  0  0  0  0  0  0  0  0  0  0  0
   11.4101   43.5818   34.3616 O   0  0  0  0  0  0  0  0  0  0  0  0
    9.3671   42.7307   33.7016 O   0  0  0  0  0  0  0  0  0  0  0  0
    9.8851   41.2327   34.2837 P   0  0  0  0  0  5  0  0  0  0  0  0
   10.3652   41.4675   35.8745 O   0  0  0  0  0  1  0  0  0  0  0  0
    9.9609   45.1123   33.2471 C   0  0  2  0  0  0  0  0  0  0  0  0
   11.0653   46.0477   33.4751 N   0  0  0  0  0  0  0  0  0  0  0  0
    8.6644   45.6567   33.8703 C   0  0  0  0  0  0  0  0  0  0  0  0
    8.2765   46.9642   33.2529 C   0  0  0  0  0  0  0  0  0  0  0  0
    8.6001   48.1589   33.9064 O   0  0  0  0  0  0  0  0  0  0  0  0
    7.6937   46.9790   32.1341 O   0  0  0  0  0  0  0  0  0  0  0  0
    8.3364   49.4466   33.3498 C   0  0  0  0  0  0  0  0  0  0  0  0
    9.2550   49.7330   32.1816 C   0  0  0  0  0  0  0  0  0  0  0  0
    8.8023   50.3937   31.0101 C   0  0  0  0  0  0  0  0  0  0  0  0
   10.6031   49.3366   32.2654 C   0  0  0  0  0  0  0  0  0  0  0  0
    7.4720   50.9280   30.9128 N   0  0  0  0  0  4  0  0  0  0  0  0
    9.6847   50.5537   29.9267 C   0  0  0  0  0  0  0  0  0  0  0  0
   11.4687   49.5204   31.1866 C   0  0  0  0  0  0  0  0  0  0  0  0
    6.9489   51.6690   31.9474 O   0  0  0  0  0  1  0  0  0  0  0  0
    6.8697   50.9113   29.8193 O   0  0  0  0  0  0  0  0  0  0  0  0
   11.0070   50.1163   30.0145 C   0  0  0  0  0  0  0  0  0  0  0  0
    8.8075   40.1901   34.2072 O   0  0  0  0  0  0  0  0  0  0  0  0
   11.2381   40.7897   33.3686 O   0  0  0  0  0  0  0  0  0  0  0  0
   10.9194   40.6894   31.9947 C   0  0  0  0  0  0  0  0  0  0  0  0
   11.5171   39.3801   31.4396 C   0  0  0  0  0  0  0  0  0  0  0  0
   12.7479   39.0861   32.0733 O   0  0  0  0  0  0  0  0  0  0  0  0
   10.6031   38.1891   31.6666 C   0  0  0  0  0  0  0  0  0  0  0  0
   12.9335   37.6796   32.0279 C   0  0  0  0  0  0  0  0  0  0  0  0
    9.6397   38.0777   30.6456 O   0  0  0  0  0  0  0  0  0  0  0  0
   11.5739   37.0154   31.7057 C   0  0  0  0  0  0  0  0  0  0  0  0
   13.4903   37.2178   33.3231 N   0  0  0  0  0  0  0  0  0  0  0  0
   11.6211   36.3376   30.4695 O   0  0  0  0  0  0  0  0  0  0  0  0
   14.4761   36.3273   33.5725 C   0  0  0  0  0  0  0  0  0  0  0  0
   13.1179   37.6317   34.5684 C   0  0  0  0  0  0  0  0  0  0  0  0
   15.2063   35.6139   32.6737 N   0  0  0  0  0  0  0  0  0  0  0  0
   14.6734   36.2277   34.9179 C   0  0  0  0  0  0  0  0  0  0  0  0
   13.8225   37.0459   35.5779 N   0  0  0  0  0  0  0  0  0  0  0  0
   16.1636   34.7594   33.1546 C   0  0  0  0  0  0  0  0  0  0  0  0
   15.6515   35.3494   35.4129 C   0  0  0  0  0  0  0  0  0  0  0  0
   16.3791   34.6311   34.5041 N   0  0  0  0  0  0  0  0  0  0  0  0
   15.9001   35.1935   36.8088 N   0  0  0  0  0  0  0  0  0  0  0  0
    9.8111   44.9950   32.1507 H   0  0  0  0  0  0  0  0  0  0  0  0
   11.9219   45.7035   32.9821 H   0  0  0  0  0  0  0  0  0  0  0  0
   11.2748   46.1191   34.4983 H   0  0  0  0  0  0  0  0  0  0  0  0
    7.8349   44.9324   33.7146 H   0  0  0  0  0  0  0  0  0  0  0  0
    8.7956   45.7913   34.9665 H   0  0  0  0  0  0  0  0  0  0  0  0
    8.5077   50.2154   34.1317 H   0  0  0  0  0  0  0  0  0  0  0  0
    7.2668   49.4855   33.0565 H   0  0  0  0  0  0  0  0  0  0  0  0
   10.9833   48.8693   33.1650 H   0  0  0  0  0  0  0  0  0  0  0  0
    9.3541   51.0452   29.0202 H   0  0  0  0  0  0  0  0  0  0  0  0
   12.4990   49.1965   31.2588 H   0  0  0  0  0  0  0  0  0  0  0  0
   11.6795   50.2554   29.1779 H   0  0  0  0  0  0  0  0  0  0  0  0
   11.4014   41.5437   31.4731 H   0  0  0  0  0  0  0  0  0  0  0  0
    9.8316   40.7398   31.7544 H   0  0  0  0  0  0  0  0  0  0  0  0
   11.6982   39.5042   30.3470 H   0  0  0  0  0  0  0  0  0  0  0  0
   10.1090   38.2631   32.6649 H   0  0  0  0  0  0  0  0  0  0  0  0
   13.6656   37.4540   31.2207 H   0  0  0  0  0  0  0  0  0  0  0  0
    8.8965   38.6900   30.8851 H   0  0  0  0  0  0  0  0  0  0  0  0
   11.2846   36.3060   32.5175 H   0  0  0  0  0  0  0  0  0  0  0  0
   10.8523   35.7094   30.4590 H   0  0  0  0  0  0  0  0  0  0  0  0
   12.3353   38.3588   34.7439 H   0  0  0  0  0  0  0  0  0  0  0  0
   16.7570   34.1788   32.4619 H   0  0  0  0  0  0  0  0  0  0  0  0
   16.6360   34.5317   37.1413 H   0  0  0  0  0  0  0  0  0  0  0  0
   15.3529   35.7359   37.5136 H   0  0  0  0  0  0  0  0  0  0  0  0
  1  2  2  0
  1  3  1  0
  3  4  1  0
  4  5  1  0
  6  1  1  0
  7  6  1  0
  6  8  1  0
  8  9  1  0
  9 10  1  0
  9 11  2  0
 10 12  1  0
 12 13  1  0
 13 14  2  0
 15 13  1  0
 14 16  1  0
 14 17  1  0
 18 15  2  0
 16 19  1  0
 16 20  2  0
 17 21  2  0
 21 18  1  0
  4 22  2  0
  4 23  1  0
 24 23  1  0
 24 25  1  0
 25 26  1  0
 25 27  1  0
 26 28  1  0
 27 29  1  0
 27 30  1  0
 30 28  1  0
 28 31  1  0
 30 32  1  0
 33 31  1  0
 34 31  1  0
 35 33  2  0
 33 36  1  0
 37 34  2  0
 38 35  1  0
 36 39  2  0
 36 37  1  0
 40 38  2  0
 40 39  1  0
 39 41  1  0
  6 42  1  6
  7 43  1  0
  7 44  1  0
  8 45  1  0
  8 46  1  0
 12 47  1  0
 12 48  1  0
 15 49  1  0
 17 50  1  0
 18 51  1  0
 21 52  1  0
 24 53  1  0
 24 54  1  0
 25 55  1  0
 27 56  1  0
 28 57  1  0
 29 58  1  0
 30 59  1  0
 32 60  1  0
 34 61  1  0
 38 62  1  0
 41 63  1  0
 41 64  1  0
M  CHG  3   5  -1  16   1  19  -1
M  END
>  <EmbedRMS>  (213) 
0.0899377719563577

$$$$

     RDKit          3D

 64 67  0  0  0  0  0  0  0  0999 V2000
   10.2851   43.7723   33.8063 C   0  0  0  0  0  0  0  0  0  0  0  0
   11.4106   43.5853   34.3539 O   0  0  0  0  0  0  0  0  0  0  0  0
    9.3664   42.7313   33.7016 O   0  0  0  0  0  0  0  0  0  0  0  0
    9.8852   41.2342   34.2848 P   0  0  0  0  0  5  0  0  0  0  0  0
   10.3658   41.4696   35.8751 O   0  0  0  0  0  1  0  0  0  0  0  0
    9.9589   45.1113   33.2433 C   0  0  2  0  0  0  0  0  0  0  0  0
   11.0667   46.0374   33.4861 N   0  0  0  0  0  0  0  0  0  0  0  0
    8.6417   45.6612   33.8300 C   0  0  0  0  0  0  0  0  0  0  0  0
    8.7569   46.0703   35.2713 C   0  0  0  0  0  0  0  0  0  0  0  0
    9.2018   45.1499   36.2285 O   0  0  0  0  0  0  0  0  0  0  0  0
    8.4154   47.2353   35.6135 O   0  0  0  0  0  0  0  0  0  0  0  0
    9.2499   45.4380   37.6254 C   0  0  0  0  0  0  0  0  0  0  0  0
   10.2915   46.4929   37.9277 C   0  0  0  0  0  0  0  0  0  0  0  0
   11.6628   46.3308   37.5862 C   0  0  0  0  0  0  0  0  0  0  0  0
    9.8704   47.6992   38.5184 C   0  0  0  0  0  0  0  0  0  0  0  0
   12.1688   45.1191   36.9971 N   0  0  0  0  0  4  0  0  0  0  0  0
   12.5552   47.3928   37.8192 C   0  0  0  0  0  0  0  0  0  0  0  0
   10.7768   48.7328   38.7549 C   0  0  0  0  0  0  0  0  0  0  0  0
   13.2741   45.1648   36.1785 O   0  0  0  0  0  1  0  0  0  0  0  0
   11.7384   44.0052   37.3583 O   0  0  0  0  0  0  0  0  0  0  0  0
   12.1154   48.5819   38.4015 C   0  0  0  0  0  0  0  0  0  0  0  0
    8.8077   40.1913   34.2090 O   0  0  0  0  0  0  0  0  0  0  0  0
   11.2370   40.7902   33.3687 O   0  0  0  0  0  0  0  0  0  0  0  0
   10.9158   40.6891   31.9955 C   0  0  0  0  0  0  0  0  0  0  0  0
   11.5251   39.3874   31.4367 C   0  0  0  0  0  0  0  0  0  0  0  0
   12.7486   39.0880   32.0805 O   0  0  0  0  0  0  0  0  0  0  0  0
   10.6100   38.1910   31.6471 C   0  0  0  0  0  0  0  0  0  0  0  0
   12.9348   37.6809   32.0293 C   0  0  0  0  0  0  0  0  0  0  0  0
    9.6126   38.0875   30.6547 O   0  0  0  0  0  0  0  0  0  0  0  0
   11.5767   37.0134   31.7026 C   0  0  0  0  0  0  0  0  0  0  0  0
   13.4901   37.2165   33.3236 N   0  0  0  0  0  0  0  0  0  0  0  0
   11.6321   36.3232   30.4741 O   0  0  0  0  0  0  0  0  0  0  0  0
   14.4762   36.3266   33.5728 C   0  0  0  0  0  0  0  0  0  0  0  0
   13.1179   37.6307   34.5689 C   0  0  0  0  0  0  0  0  0  0  0  0
   15.2065   35.6135   32.6738 N   0  0  0  0  0  0  0  0  0  0  0  0
   14.6736   36.2272   34.9182 C   0  0  0  0  0  0  0  0  0  0  0  0
   13.8228   37.0453   35.5783 N   0  0  0  0  0  0  0  0  0  0  0  0
   16.1640   34.7593   33.1547 C   0  0  0  0  0  0  0  0  0  0  0  0
   15.6518   35.3491   35.4131 C   0  0  0  0  0  0  0  0  0  0  0  0
   16.3794   34.6309   34.5042 N   0  0  0  0  0  0  0  0  0  0  0  0
   15.9004   35.1933   36.8089 N   0  0  0  0  0  0  0  0  0  0  0  0
    9.8214   44.9888   32.1453 H   0  0  0  0  0  0  0  0  0  0  0  0
   11.8916   45.7221   32.9242 H   0  0  0  0  0  0  0  0  0  0  0  0
   10.8051   46.9737   33.0998 H   0  0  0  0  0  0  0  0  0  0  0  0
    7.8338   44.9041   33.7352 H   0  0  0  0  0  0  0  0  0  0  0  0
    8.3273   46.5404   33.2255 H   0  0  0  0  0  0  0  0  0  0  0  0
    9.4827   44.5102   38.1859 H   0  0  0  0  0  0  0  0  0  0  0  0
    8.2386   45.7542   37.9634 H   0  0  0  0  0  0  0  0  0  0  0  0
    8.8315   47.8488   38.7858 H   0  0  0  0  0  0  0  0  0  0  0  0
   13.6027   47.2944   37.5643 H   0  0  0  0  0  0  0  0  0  0  0  0
   10.4382   49.6565   39.2063 H   0  0  0  0  0  0  0  0  0  0  0  0
   12.8159   49.3871   38.5820 H   0  0  0  0  0  0  0  0  0  0  0  0
    9.8258   40.7205   31.7583 H   0  0  0  0  0  0  0  0  0  0  0  0
   11.3844   41.5508   31.4737 H   0  0  0  0  0  0  0  0  0  0  0  0
   11.7272   39.5290   30.3504 H   0  0  0  0  0  0  0  0  0  0  0  0
   10.1121   38.2732   32.6391 H   0  0  0  0  0  0  0  0  0  0  0  0
   13.6685   37.4593   31.2225 H   0  0  0  0  0  0  0  0  0  0  0  0
   10.0515   38.1112   29.7648 H   0  0  0  0  0  0  0  0  0  0  0  0
   11.2801   36.3129   32.5195 H   0  0  0  0  0  0  0  0  0  0  0  0
   10.8625   35.6961   30.4646 H   0  0  0  0  0  0  0  0  0  0  0  0
   12.3357   38.3582   34.7445 H   0  0  0  0  0  0  0  0  0  0  0  0
   16.7574   34.1788   32.4619 H   0  0  0  0  0  0  0  0  0  0  0  0
   16.6364   34.5315   37.1415 H   0  0  0  0  0  0  0  0  0  0  0  0
   15.3531   35.7356   37.5138 H   0  0  0  0  0  0  0  0  0  0  0  0
  1  2  2  0
  1  3  1  0
  3  4  1  0
  4  5  1  0
  6  1  1  0
  7  6  1  0
  6  8  1  0
  8  9  1  0
  9 10  1  0
  9 11  2  0
 10 12  1  0
 12 13  1  0
 13 14  2  0
 15 13  1  0
 14 16  1  0
 14 17  1  0
 18 15  2  0
 16 19  1  0
 16 20  2  0
 17 21  2  0
 21 18  1  0
  4 22  2  0
  4 23  1  0
 24 23  1  0
 24 25  1  0
 25 26  1  0
 25 27  1  0
 26 28  1  0
 27 29  1  0
 27 30  1  0
 30 28  1  0
 28 31  1  0
 30 32  1  0
 33 31  1  0
 34 31  1  0
 35 33  2  0
 33 36  1  0
 37 34  2  0
 38 35  1  0
 36 39  2  0
 36 37  1  0
 40 38  2  0
 40 39  1  0
 39 41  1  0
  6 42  1  6
  7 43  1  0
  7 44  1  0
  8 45  1  0
  8 46  1  0
 12 47  1  0
 12 48  1  0
 15 49  1  0
 17 50  1  0
 18 51  1  0
 21 52  1  0
 24 53  1  0
 24 54  1  0
 25 55  1  0
 27 56  1  0
 28 57  1  0
 29 58  1  0
 30 59  1  0
 32 60  1  0
 34 61  1  0
 38 62  1  0
 41 63  1  0
 41 64  1  0
M  CHG  3   5  -1  16   1  19  -1
M  END
>  <EmbedRMS>  (214) 
0.08803468818502047

$$$$

     RDKit          3D

 64 67  0  0  0  0  0  0  0  0999 V2000
   10.2844   43.7743   33.8069 C   0  0  0  0  0  0  0  0  0  0  0  0
   11.4069   43.5904   34.3636 O   0  0  0  0  0  0  0  0  0  0  0  0
    9.3681   42.7310   33.6987 O   0  0  0  0  0  0  0  0  0  0  0  0
    9.8863   41.2340   34.2827 P   0  0  0  0  0  5  0  0  0  0  0  0
   10.3670   41.4693   35.8732 O   0  0  0  0  0  1  0  0  0  0  0  0
    9.9496   45.1161   33.2539 C   0  0  2  0  0  0  0  0  0  0  0  0
   11.0750   46.0281   33.4738 N   0  0  0  0  0  0  0  0  0  0  0  0
    8.6775   45.6534   33.9388 C   0  0  0  0  0  0  0  0  0  0  0  0
    8.1744   46.8956   33.2710 C   0  0  0  0  0  0  0  0  0  0  0  0
    7.5745   46.8027   32.0099 O   0  0  0  0  0  0  0  0  0  0  0  0
    8.3103   48.0136   33.8395 O   0  0  0  0  0  0  0  0  0  0  0  0
    7.0559   47.9318   31.3071 C   0  0  0  0  0  0  0  0  0  0  0  0
    5.7991   48.4666   31.9610 C   0  0  0  0  0  0  0  0  0  0  0  0
    5.4735   49.8480   31.9334 C   0  0  0  0  0  0  0  0  0  0  0  0
    4.9165   47.5689   32.5930 C   0  0  0  0  0  0  0  0  0  0  0  0
    6.2732   50.7966   31.2070 N   0  0  0  0  0  4  0  0  0  0  0  0
    4.3282   50.2983   32.6145 C   0  0  0  0  0  0  0  0  0  0  0  0
    3.7747   48.0335   33.2470 C   0  0  0  0  0  0  0  0  0  0  0  0
    6.7184   50.5002   29.9393 O   0  0  0  0  0  1  0  0  0  0  0  0
    6.3987   51.9641   31.6311 O   0  0  0  0  0  0  0  0  0  0  0  0
    3.4877   49.3967   33.2684 C   0  0  0  0  0  0  0  0  0  0  0  0
    8.8083   40.1915   34.2077 O   0  0  0  0  0  0  0  0  0  0  0  0
   11.2377   40.7903   33.3657 O   0  0  0  0  0  0  0  0  0  0  0  0
   10.9147   40.6850   31.9929 C   0  0  0  0  0  0  0  0  0  0  0  0
   11.5168   39.3772   31.4392 C   0  0  0  0  0  0  0  0  0  0  0  0
   12.7473   39.0853   32.0738 O   0  0  0  0  0  0  0  0  0  0  0  0
   10.6048   38.1867   31.6669 C   0  0  0  0  0  0  0  0  0  0  0  0
   12.9346   37.6790   32.0282 C   0  0  0  0  0  0  0  0  0  0  0  0
    9.6378   38.0918   30.6489 O   0  0  0  0  0  0  0  0  0  0  0  0
   11.5761   37.0129   31.7057 C   0  0  0  0  0  0  0  0  0  0  0  0
   13.4909   37.2177   33.3233 N   0  0  0  0  0  0  0  0  0  0  0  0
   11.6233   36.3371   30.4684 O   0  0  0  0  0  0  0  0  0  0  0  0
   14.4765   36.3271   33.5727 C   0  0  0  0  0  0  0  0  0  0  0  0
   13.1182   37.6315   34.5685 C   0  0  0  0  0  0  0  0  0  0  0  0
   15.2066   35.6137   32.6739 N   0  0  0  0  0  0  0  0  0  0  0  0
   14.6736   36.2276   34.9182 C   0  0  0  0  0  0  0  0  0  0  0  0
   13.8227   37.0457   35.5781 N   0  0  0  0  0  0  0  0  0  0  0  0
   16.1638   34.7592   33.1548 C   0  0  0  0  0  0  0  0  0  0  0  0
   15.6517   35.3492   35.4131 C   0  0  0  0  0  0  0  0  0  0  0  0
   16.3792   34.6309   34.5043 N   0  0  0  0  0  0  0  0  0  0  0  0
   15.9002   35.1934   36.8090 N   0  0  0  0  0  0  0  0  0  0  0  0
    9.7662   45.0035   32.1610 H   0  0  0  0  0  0  0  0  0  0  0  0
   10.8425   46.9574   33.0550 H   0  0  0  0  0  0  0  0  0  0  0  0
   11.8940   45.6807   32.9222 H   0  0  0  0  0  0  0  0  0  0  0  0
    7.8672   44.8939   33.8869 H   0  0  0  0  0  0  0  0  0  0  0  0
    8.8825   45.8555   35.0137 H   0  0  0  0  0  0  0  0  0  0  0  0
    7.8499   48.7069   31.2600 H   0  0  0  0  0  0  0  0  0  0  0  0
    6.8105   47.6226   30.2698 H   0  0  0  0  0  0  0  0  0  0  0  0
    5.1181   46.5050   32.5940 H   0  0  0  0  0  0  0  0  0  0  0  0
    4.0698   51.3498   32.6147 H   0  0  0  0  0  0  0  0  0  0  0  0
    3.1126   47.3343   33.7414 H   0  0  0  0  0  0  0  0  0  0  0  0
    2.6029   49.7548   33.7789 H   0  0  0  0  0  0  0  0  0  0  0  0
   11.3877   41.5414   31.4666 H   0  0  0  0  0  0  0  0  0  0  0  0
    9.8246   40.7213   31.7563 H   0  0  0  0  0  0  0  0  0  0  0  0
   11.6988   39.5011   30.3465 H   0  0  0  0  0  0  0  0  0  0  0  0
   10.1097   38.2772   32.6629 H   0  0  0  0  0  0  0  0  0  0  0  0
   13.6672   37.4543   31.2212 H   0  0  0  0  0  0  0  0  0  0  0  0
    8.9779   37.4158   30.9534 H   0  0  0  0  0  0  0  0  0  0  0  0
   11.2860   36.3041   32.5177 H   0  0  0  0  0  0  0  0  0  0  0  0
   10.8689   35.6918   30.4657 H   0  0  0  0  0  0  0  0  0  0  0  0
   12.3356   38.3587   34.7439 H   0  0  0  0  0  0  0  0  0  0  0  0
   16.7572   34.1786   32.4621 H   0  0  0  0  0  0  0  0  0  0  0  0
   16.6361   34.5315   37.1416 H   0  0  0  0  0  0  0  0  0  0  0  0
   15.3530   35.7358   37.5138 H   0  0  0  0  0  0  0  0  0  0  0  0
  1  2  2  0
  1  3  1  0
  3  4  1  0
  4  5  1  0
  6  1  1  0
  7  6  1  0
  6  8  1  0
  8  9  1  0
  9 10  1  0
  9 11  2  0
 10 12  1  0
 12 13  1  0
 13 14  2  0
 15 13  1  0
 14 16  1  0
 14 17  1  0
 18 15  2  0
 16 19  1  0
 16 20  2  0
 17 21  2  0
 21 18  1  0
  4 22  2  0
  4 23  1  0
 24 23  1  0
 24 25  1  0
 25 26  1  0
 25 27  1  0
 26 28  1  0
 27 29  1  0
 27 30  1  0
 30 28  1  0
 28 31  1  0
 30 32  1  0
 33 31  1  0
 34 31  1  0
 35 33  2  0
 33 36  1  0
 37 34  2  0
 38 35  1  0
 36 39  2  0
 36 37  1  0
 40 38  2  0
 40 39  1  0
 39 41  1  0
  6 42  1  6
  7 43  1  0
  7 44  1  0
  8 45  1  0
  8 46  1  0
 12 47  1  0
 12 48  1  0
 15 49  1  0
 17 50  1  0
 18 51  1  0
 21 52  1  0
 24 53  1  0
 24 54  1  0
 25 55  1  0
 27 56  1  0
 28 57  1  0
 29 58  1  0
 30 59  1  0
 32 60  1  0
 34 61  1  0
 38 62  1  0
 41 63  1  0
 41 64  1  0
M  CHG  3   5  -1  16   1  19  -1
M  END
>  <EmbedRMS>  (215) 
0.08907680365243689

$$$$

     RDKit          3D

 64 67  0  0  0  0  0  0  0  0999 V2000
   10.2842   43.7733   33.8097 C   0  0  0  0  0  0  0  0  0  0  0  0
   11.4120   43.5861   34.3527 O   0  0  0  0  0  0  0  0  0  0  0  0
    9.3657   42.7322   33.7047 O   0  0  0  0  0  0  0  0  0  0  0  0
    9.8849   41.2341   34.2849 P   0  0  0  0  0  5  0  0  0  0  0  0
   10.3657   41.4670   35.8751 O   0  0  0  0  0  1  0  0  0  0  0  0
    9.9629   45.1076   33.2366 C   0  0  2  0  0  0  0  0  0  0  0  0
   11.0642   46.0402   33.4883 N   0  0  0  0  0  0  0  0  0  0  0  0
    8.6081   45.6537   33.7432 C   0  0  0  0  0  0  0  0  0  0  0  0
    8.5953   45.9998   35.2055 C   0  0  0  0  0  0  0  0  0  0  0  0
    8.9918   45.0514   36.1569 O   0  0  0  0  0  0  0  0  0  0  0  0
    8.1864   47.1367   35.5679 O   0  0  0  0  0  0  0  0  0  0  0  0
    8.9154   45.2791   37.5636 C   0  0  0  0  0  0  0  0  0  0  0  0
    9.8983   46.3445   37.9967 C   0  0  0  0  0  0  0  0  0  0  0  0
   11.2967   46.2301   37.7675 C   0  0  0  0  0  0  0  0  0  0  0  0
    9.3953   47.5148   38.5958 C   0  0  0  0  0  0  0  0  0  0  0  0
   11.8796   45.0527   37.1794 N   0  0  0  0  0  4  0  0  0  0  0  0
   12.1370   47.3035   38.1185 C   0  0  0  0  0  0  0  0  0  0  0  0
   10.2493   48.5597   38.9495 C   0  0  0  0  0  0  0  0  0  0  0  0
   11.4291   43.8003   37.5238 O   0  0  0  0  0  1  0  0  0  0  0  0
   12.9237   45.1454   36.5011 O   0  0  0  0  0  0  0  0  0  0  0  0
   11.6166   48.4563   38.7068 C   0  0  0  0  0  0  0  0  0  0  0  0
    8.8075   40.1913   34.2084 O   0  0  0  0  0  0  0  0  0  0  0  0
   11.2367   40.7911   33.3681 O   0  0  0  0  0  0  0  0  0  0  0  0
   10.9147   40.6885   31.9952 C   0  0  0  0  0  0  0  0  0  0  0  0
   11.5258   39.3873   31.4368 C   0  0  0  0  0  0  0  0  0  0  0  0
   12.7489   39.0895   32.0822 O   0  0  0  0  0  0  0  0  0  0  0  0
   10.6122   38.1894   31.6462 C   0  0  0  0  0  0  0  0  0  0  0  0
   12.9373   37.6829   32.0302 C   0  0  0  0  0  0  0  0  0  0  0  0
    9.6150   38.0839   30.6538 O   0  0  0  0  0  0  0  0  0  0  0  0
   11.5793   37.0138   31.7014 C   0  0  0  0  0  0  0  0  0  0  0  0
   13.4906   37.2170   33.3243 N   0  0  0  0  0  0  0  0  0  0  0  0
   11.6217   36.3254   30.4725 O   0  0  0  0  0  0  0  0  0  0  0  0
   14.4763   36.3267   33.5731 C   0  0  0  0  0  0  0  0  0  0  0  0
   13.1182   37.6309   34.5695 C   0  0  0  0  0  0  0  0  0  0  0  0
   15.2065   35.6137   32.6740 N   0  0  0  0  0  0  0  0  0  0  0  0
   14.6735   36.2270   34.9185 C   0  0  0  0  0  0  0  0  0  0  0  0
   13.8229   37.0451   35.5788 N   0  0  0  0  0  0  0  0  0  0  0  0
   16.1639   34.7593   33.1547 C   0  0  0  0  0  0  0  0  0  0  0  0
   15.6518   35.3489   35.4132 C   0  0  0  0  0  0  0  0  0  0  0  0
   16.3794   34.6308   34.5042 N   0  0  0  0  0  0  0  0  0  0  0  0
   15.9006   35.1931   36.8090 N   0  0  0  0  0  0  0  0  0  0  0  0
    9.8767   44.9679   32.1366 H   0  0  0  0  0  0  0  0  0  0  0  0
   11.1343   46.2484   34.5108 H   0  0  0  0  0  0  0  0  0  0  0  0
   10.8544   46.9424   33.0024 H   0  0  0  0  0  0  0  0  0  0  0  0
    7.8067   44.9088   33.5492 H   0  0  0  0  0  0  0  0  0  0  0  0
    8.3517   46.5598   33.1513 H   0  0  0  0  0  0  0  0  0  0  0  0
    9.1224   44.3340   38.1038 H   0  0  0  0  0  0  0  0  0  0  0  0
    7.8711   45.5567   37.8272 H   0  0  0  0  0  0  0  0  0  0  0  0
    8.3338   47.6281   38.7785 H   0  0  0  0  0  0  0  0  0  0  0  0
   13.2048   47.2408   37.9507 H   0  0  0  0  0  0  0  0  0  0  0  0
    9.8478   49.4553   39.4059 H   0  0  0  0  0  0  0  0  0  0  0  0
   12.2766   49.2702   38.9782 H   0  0  0  0  0  0  0  0  0  0  0  0
    9.8244   40.7180   31.7587 H   0  0  0  0  0  0  0  0  0  0  0  0
   11.3814   41.5506   31.4725 H   0  0  0  0  0  0  0  0  0  0  0  0
   11.7289   39.5290   30.3507 H   0  0  0  0  0  0  0  0  0  0  0  0
   10.1137   38.2718   32.6380 H   0  0  0  0  0  0  0  0  0  0  0  0
   13.6725   37.4641   31.2241 H   0  0  0  0  0  0  0  0  0  0  0  0
   10.0536   38.1087   29.7639 H   0  0  0  0  0  0  0  0  0  0  0  0
   11.2646   36.3135   32.5107 H   0  0  0  0  0  0  0  0  0  0  0  0
   12.1551   35.5034   30.6316 H   0  0  0  0  0  0  0  0  0  0  0  0
   12.3362   38.3587   34.7451 H   0  0  0  0  0  0  0  0  0  0  0  0
   16.7573   34.1788   32.4618 H   0  0  0  0  0  0  0  0  0  0  0  0
   15.3533   35.7353   37.5139 H   0  0  0  0  0  0  0  0  0  0  0  0
   16.6366   34.5314   37.1415 H   0  0  0  0  0  0  0  0  0  0  0  0
  1  2  2  0
  1  3  1  0
  3  4  1  0
  4  5  1  0
  6  1  1  0
  7  6  1  0
  6  8  1  0
  8  9  1  0
  9 10  1  0
  9 11  2  0
 10 12  1  0
 12 13  1  0
 13 14  2  0
 15 13  1  0
 14 16  1  0
 14 17  1  0
 18 15  2  0
 16 19  1  0
 16 20  2  0
 17 21  2  0
 21 18  1  0
  4 22  2  0
  4 23  1  0
 24 23  1  0
 24 25  1  0
 25 26  1  0
 25 27  1  0
 26 28  1  0
 27 29  1  0
 27 30  1  0
 30 28  1  0
 28 31  1  0
 30 32  1  0
 33 31  1  0
 34 31  1  0
 35 33  2  0
 33 36  1  0
 37 34  2  0
 38 35  1  0
 36 39  2  0
 36 37  1  0
 40 38  2  0
 40 39  1  0
 39 41  1  0
  6 42  1  6
  7 43  1  0
  7 44  1  0
  8 45  1  0
  8 46  1  0
 12 47  1  0
 12 48  1  0
 15 49  1  0
 17 50  1  0
 18 51  1  0
 21 52  1  0
 24 53  1  0
 24 54  1  0
 25 55  1  0
 27 56  1  0
 28 57  1  0
 29 58  1  0
 30 59  1  0
 32 60  1  0
 34 61  1  0
 38 62  1  0
 41 63  1  0
 41 64  1  0
M  CHG  3   5  -1  16   1  19  -1
M  END
>  <EmbedRMS>  (216) 
0.08795188872085347

$$$$

     RDKit          3D

 64 67  0  0  0  0  0  0  0  0999 V2000
   10.2865   43.7710   33.8021 C   0  0  0  0  0  0  0  0  0  0  0  0
   11.4119   43.5862   34.3522 O   0  0  0  0  0  0  0  0  0  0  0  0
    9.3672   42.7307   33.6989 O   0  0  0  0  0  0  0  0  0  0  0  0
    9.8854   41.2344   34.2844 P   0  0  0  0  0  5  0  0  0  0  0  0
   10.3650   41.4711   35.8748 O   0  0  0  0  0  1  0  0  0  0  0  0
    9.9550   45.1132   33.2494 C   0  0  2  0  0  0  0  0  0  0  0  0
   11.0680   46.0344   33.4867 N   0  0  0  0  0  0  0  0  0  0  0  0
    8.6206   45.6658   33.8077 C   0  0  0  0  0  0  0  0  0  0  0  0
    8.4984   45.5292   35.2986 C   0  0  0  0  0  0  0  0  0  0  0  0
    9.1760   46.4195   36.1385 O   0  0  0  0  0  0  0  0  0  0  0  0
    7.8147   44.5858   35.7807 O   0  0  0  0  0  0  0  0  0  0  0  0
    9.2355   46.2691   37.5567 C   0  0  0  0  0  0  0  0  0  0  0  0
   10.0356   45.0404   37.9310 C   0  0  0  0  0  0  0  0  0  0  0  0
    9.5404   44.0278   38.7959 C   0  0  0  0  0  0  0  0  0  0  0  0
   11.3552   44.9447   37.4531 C   0  0  0  0  0  0  0  0  0  0  0  0
    8.2087   44.0643   39.3297 N   0  0  0  0  0  4  0  0  0  0  0  0
   10.3803   42.9604   39.1563 C   0  0  0  0  0  0  0  0  0  0  0  0
   12.1667   43.8660   37.8060 C   0  0  0  0  0  0  0  0  0  0  0  0
    7.9943   43.7116   40.6420 O   0  0  0  0  0  1  0  0  0  0  0  0
    7.2282   44.1482   38.5627 O   0  0  0  0  0  0  0  0  0  0  0  0
   11.6810   42.8767   38.6583 C   0  0  0  0  0  0  0  0  0  0  0  0
    8.8081   40.1914   34.2088 O   0  0  0  0  0  0  0  0  0  0  0  0
   11.2380   40.7899   33.3693 O   0  0  0  0  0  0  0  0  0  0  0  0
   10.9187   40.6888   31.9955 C   0  0  0  0  0  0  0  0  0  0  0  0
   11.5180   39.3802   31.4401 C   0  0  0  0  0  0  0  0  0  0  0  0
   12.7484   39.0876   32.0751 O   0  0  0  0  0  0  0  0  0  0  0  0
   10.6053   38.1875   31.6657 C   0  0  0  0  0  0  0  0  0  0  0  0
   12.9361   37.6817   32.0289 C   0  0  0  0  0  0  0  0  0  0  0  0
    9.6423   38.0739   30.6446 O   0  0  0  0  0  0  0  0  0  0  0  0
   11.5765   37.0159   31.7047 C   0  0  0  0  0  0  0  0  0  0  0  0
   13.4908   37.2183   33.3237 N   0  0  0  0  0  0  0  0  0  0  0  0
   11.6102   36.3400   30.4681 O   0  0  0  0  0  0  0  0  0  0  0  0
   14.4761   36.3274   33.5728 C   0  0  0  0  0  0  0  0  0  0  0  0
   13.1181   37.6319   34.5690 C   0  0  0  0  0  0  0  0  0  0  0  0
   15.2063   35.6141   32.6739 N   0  0  0  0  0  0  0  0  0  0  0  0
   14.6733   36.2275   34.9183 C   0  0  0  0  0  0  0  0  0  0  0  0
   13.8226   37.0458   35.5784 N   0  0  0  0  0  0  0  0  0  0  0  0
   16.1635   34.7595   33.1546 C   0  0  0  0  0  0  0  0  0  0  0  0
   15.6515   35.3492   35.4130 C   0  0  0  0  0  0  0  0  0  0  0  0
   16.3791   34.6310   34.5041 N   0  0  0  0  0  0  0  0  0  0  0  0
   15.9002   35.1934   36.8089 N   0  0  0  0  0  0  0  0  0  0  0  0
    9.8395   44.9940   32.1495 H   0  0  0  0  0  0  0  0  0  0  0  0
   10.8786   46.9271   32.9754 H   0  0  0  0  0  0  0  0  0  0  0  0
   11.1302   46.2671   34.5031 H   0  0  0  0  0  0  0  0  0  0  0  0
    8.5100   46.7361   33.5312 H   0  0  0  0  0  0  0  0  0  0  0  0
    7.7782   45.1217   33.3263 H   0  0  0  0  0  0  0  0  0  0  0  0
    9.7476   47.1586   37.9801 H   0  0  0  0  0  0  0  0  0  0  0  0
    8.2102   46.2730   37.9735 H   0  0  0  0  0  0  0  0  0  0  0  0
   11.7614   45.7159   36.8111 H   0  0  0  0  0  0  0  0  0  0  0  0
   10.0181   42.1805   39.8143 H   0  0  0  0  0  0  0  0  0  0  0  0
   13.1779   43.8027   37.4251 H   0  0  0  0  0  0  0  0  0  0  0  0
   12.3138   42.0433   38.9350 H   0  0  0  0  0  0  0  0  0  0  0  0
    9.8307   40.7374   31.7558 H   0  0  0  0  0  0  0  0  0  0  0  0
   11.3990   41.5437   31.4734 H   0  0  0  0  0  0  0  0  0  0  0  0
   11.7000   39.5050   30.3477 H   0  0  0  0  0  0  0  0  0  0  0  0
   10.1103   38.2618   32.6637 H   0  0  0  0  0  0  0  0  0  0  0  0
   13.6696   37.4588   31.2223 H   0  0  0  0  0  0  0  0  0  0  0  0
    8.9001   38.6884   30.8813 H   0  0  0  0  0  0  0  0  0  0  0  0
   11.2690   36.3069   32.5092 H   0  0  0  0  0  0  0  0  0  0  0  0
   12.1427   35.5152   30.6154 H   0  0  0  0  0  0  0  0  0  0  0  0
   12.3360   38.3596   34.7446 H   0  0  0  0  0  0  0  0  0  0  0  0
   16.7569   34.1789   32.4618 H   0  0  0  0  0  0  0  0  0  0  0  0
   16.6361   34.5315   37.1414 H   0  0  0  0  0  0  0  0  0  0  0  0
   15.3530   35.7357   37.5138 H   0  0  0  0  0  0  0  0  0  0  0  0
  1  2  2  0
  1  3  1  0
  3  4  1  0
  4  5  1  0
  6  1  1  0
  7  6  1  0
  6  8  1  0
  8  9  1  0
  9 10  1  0
  9 11  2  0
 10 12  1  0
 12 13  1  0
 13 14  2  0
 15 13  1  0
 14 16  1  0
 14 17  1  0
 18 15  2  0
 16 19  1  0
 16 20  2  0
 17 21  2  0
 21 18  1  0
  4 22  2  0
  4 23  1  0
 24 23  1  0
 24 25  1  0
 25 26  1  0
 25 27  1  0
 26 28  1  0
 27 29  1  0
 27 30  1  0
 30 28  1  0
 28 31  1  0
 30 32  1  0
 33 31  1  0
 34 31  1  0
 35 33  2  0
 33 36  1  0
 37 34  2  0
 38 35  1  0
 36 39  2  0
 36 37  1  0
 40 38  2  0
 40 39  1  0
 39 41  1  0
  6 42  1  6
  7 43  1  0
  7 44  1  0
  8 45  1  0
  8 46  1  0
 12 47  1  0
 12 48  1  0
 15 49  1  0
 17 50  1  0
 18 51  1  0
 21 52  1  0
 24 53  1  0
 24 54  1  0
 25 55  1  0
 27 56  1  0
 28 57  1  0
 29 58  1  0
 30 59  1  0
 32 60  1  0
 34 61  1  0
 38 62  1  0
 41 63  1  0
 41 64  1  0
M  CHG  3   5  -1  16   1  19  -1
M  END
>  <EmbedRMS>  (217) 
0.08911368699824938

$$$$

     RDKit          3D

 64 67  0  0  0  0  0  0  0  0999 V2000
   10.2851   43.7721   33.8063 C   0  0  0  0  0  0  0  0  0  0  0  0
   11.4100   43.5853   34.3562 O   0  0  0  0  0  0  0  0  0  0  0  0
    9.3662   42.7314   33.7015 O   0  0  0  0  0  0  0  0  0  0  0  0
    9.8850   41.2342   34.2845 P   0  0  0  0  0  5  0  0  0  0  0  0
   10.3664   41.4699   35.8747 O   0  0  0  0  0  1  0  0  0  0  0  0
    9.9587   45.1119   33.2447 C   0  0  2  0  0  0  0  0  0  0  0  0
   11.0670   46.0382   33.4840 N   0  0  0  0  0  0  0  0  0  0  0  0
    8.6416   45.6625   33.8341 C   0  0  0  0  0  0  0  0  0  0  0  0
    8.7194   46.0473   35.2871 C   0  0  0  0  0  0  0  0  0  0  0  0
    9.7118   45.5118   36.1186 O   0  0  0  0  0  0  0  0  0  0  0  0
    7.8418   46.8200   35.7579 O   0  0  0  0  0  0  0  0  0  0  0  0
    9.8554   45.8492   37.4977 C   0  0  0  0  0  0  0  0  0  0  0  0
   10.4287   47.2386   37.6536 C   0  0  0  0  0  0  0  0  0  0  0  0
   11.8214   47.5032   37.5488 C   0  0  0  0  0  0  0  0  0  0  0  0
    9.5481   48.3000   37.9336 C   0  0  0  0  0  0  0  0  0  0  0  0
   12.7767   46.4629   37.2696 N   0  0  0  0  0  4  0  0  0  0  0  0
   12.2844   48.8175   37.7478 C   0  0  0  0  0  0  0  0  0  0  0  0
   10.0280   49.5975   38.1132 C   0  0  0  0  0  0  0  0  0  0  0  0
   12.4913   45.4693   36.3637 O   0  0  0  0  0  1  0  0  0  0  0  0
   13.9360   46.5396   37.7269 O   0  0  0  0  0  0  0  0  0  0  0  0
   11.3936   49.8554   38.0226 C   0  0  0  0  0  0  0  0  0  0  0  0
    8.8076   40.1912   34.2091 O   0  0  0  0  0  0  0  0  0  0  0  0
   11.2365   40.7912   33.3674 O   0  0  0  0  0  0  0  0  0  0  0  0
   10.9133   40.6861   31.9948 C   0  0  0  0  0  0  0  0  0  0  0  0
   11.5168   39.3798   31.4411 C   0  0  0  0  0  0  0  0  0  0  0  0
   12.7486   39.0887   32.0764 O   0  0  0  0  0  0  0  0  0  0  0  0
   10.6051   38.1877   31.6660 C   0  0  0  0  0  0  0  0  0  0  0  0
   12.9411   37.6829   32.0278 C   0  0  0  0  0  0  0  0  0  0  0  0
    9.6358   38.0931   30.6503 O   0  0  0  0  0  0  0  0  0  0  0  0
   11.5827   37.0180   31.6937 C   0  0  0  0  0  0  0  0  0  0  0  0
   13.4909   37.2177   33.3239 N   0  0  0  0  0  0  0  0  0  0  0  0
   11.6141   36.3181   30.4675 O   0  0  0  0  0  0  0  0  0  0  0  0
   14.4762   36.3270   33.5733 C   0  0  0  0  0  0  0  0  0  0  0  0
   13.1179   37.6317   34.5689 C   0  0  0  0  0  0  0  0  0  0  0  0
   15.2067   35.6140   32.6743 N   0  0  0  0  0  0  0  0  0  0  0  0
   14.6731   36.2273   34.9186 C   0  0  0  0  0  0  0  0  0  0  0  0
   13.8223   37.0456   35.5785 N   0  0  0  0  0  0  0  0  0  0  0  0
   16.1639   34.7595   33.1550 C   0  0  0  0  0  0  0  0  0  0  0  0
   15.6515   35.3491   35.4134 C   0  0  0  0  0  0  0  0  0  0  0  0
   16.3792   34.6310   34.5045 N   0  0  0  0  0  0  0  0  0  0  0  0
   15.9002   35.1933   36.8092 N   0  0  0  0  0  0  0  0  0  0  0  0
    9.8186   44.9901   32.1469 H   0  0  0  0  0  0  0  0  0  0  0  0
   10.8042   46.9749   33.0994 H   0  0  0  0  0  0  0  0  0  0  0  0
   11.8900   45.7230   32.9193 H   0  0  0  0  0  0  0  0  0  0  0  0
    7.8294   44.9147   33.7063 H   0  0  0  0  0  0  0  0  0  0  0  0
    8.3454   46.5607   33.2492 H   0  0  0  0  0  0  0  0  0  0  0  0
    8.8733   45.7574   38.0118 H   0  0  0  0  0  0  0  0  0  0  0  0
   10.5258   45.1104   37.9842 H   0  0  0  0  0  0  0  0  0  0  0  0
    8.4839   48.1224   38.0258 H   0  0  0  0  0  0  0  0  0  0  0  0
   13.3411   49.0425   37.6756 H   0  0  0  0  0  0  0  0  0  0  0  0
    9.3391   50.4039   38.3294 H   0  0  0  0  0  0  0  0  0  0  0  0
   11.7640   50.8624   38.1658 H   0  0  0  0  0  0  0  0  0  0  0  0
   11.3851   41.5435   31.4689 H   0  0  0  0  0  0  0  0  0  0  0  0
    9.8231   40.7210   31.7584 H   0  0  0  0  0  0  0  0  0  0  0  0
   11.6993   39.5067   30.3489 H   0  0  0  0  0  0  0  0  0  0  0  0
   10.1119   38.2722   32.6632 H   0  0  0  0  0  0  0  0  0  0  0  0
   13.6816   37.4634   31.2269 H   0  0  0  0  0  0  0  0  0  0  0  0
    9.0037   37.3828   30.9349 H   0  0  0  0  0  0  0  0  0  0  0  0
   11.2846   36.3041   32.4928 H   0  0  0  0  0  0  0  0  0  0  0  0
   11.8850   36.9591   29.7589 H   0  0  0  0  0  0  0  0  0  0  0  0
   12.3364   38.3600   34.7441 H   0  0  0  0  0  0  0  0  0  0  0  0
   16.7574   34.1791   32.4623 H   0  0  0  0  0  0  0  0  0  0  0  0
   16.6363   34.5317   37.1417 H   0  0  0  0  0  0  0  0  0  0  0  0
   15.3530   35.7356   37.5141 H   0  0  0  0  0  0  0  0  0  0  0  0
  1  2  2  0
  1  3  1  0
  3  4  1  0
  4  5  1  0
  6  1  1  0
  7  6  1  0
  6  8  1  0
  8  9  1  0
  9 10  1  0
  9 11  2  0
 10 12  1  0
 12 13  1  0
 13 14  2  0
 15 13  1  0
 14 16  1  0
 14 17  1  0
 18 15  2  0
 16 19  1  0
 16 20  2  0
 17 21  2  0
 21 18  1  0
  4 22  2  0
  4 23  1  0
 24 23  1  0
 24 25  1  0
 25 26  1  0
 25 27  1  0
 26 28  1  0
 27 29  1  0
 27 30  1  0
 30 28  1  0
 28 31  1  0
 30 32  1  0
 33 31  1  0
 34 31  1  0
 35 33  2  0
 33 36  1  0
 37 34  2  0
 38 35  1  0
 36 39  2  0
 36 37  1  0
 40 38  2  0
 40 39  1  0
 39 41  1  0
  6 42  1  6
  7 43  1  0
  7 44  1  0
  8 45  1  0
  8 46  1  0
 12 47  1  0
 12 48  1  0
 15 49  1  0
 17 50  1  0
 18 51  1  0
 21 52  1  0
 24 53  1  0
 24 54  1  0
 25 55  1  0
 27 56  1  0
 28 57  1  0
 29 58  1  0
 30 59  1  0
 32 60  1  0
 34 61  1  0
 38 62  1  0
 41 63  1  0
 41 64  1  0
M  CHG  3   5  -1  16   1  19  -1
M  END
>  <EmbedRMS>  (218) 
0.08776830095673405

$$$$

     RDKit          3D

 64 67  0  0  0  0  0  0  0  0999 V2000
   10.2874   43.7714   33.8027 C   0  0  0  0  0  0  0  0  0  0  0  0
   11.4094   43.5882   34.3602 O   0  0  0  0  0  0  0  0  0  0  0  0
    9.3683   42.7306   33.6989 O   0  0  0  0  0  0  0  0  0  0  0  0
    9.8857   41.2338   34.2838 P   0  0  0  0  0  5  0  0  0  0  0  0
   10.3661   41.4683   35.8736 O   0  0  0  0  0  1  0  0  0  0  0  0
    9.9531   45.1150   33.2532 C   0  0  2  0  0  0  0  0  0  0  0  0
   11.0697   46.0347   33.4784 N   0  0  0  0  0  0  0  0  0  0  0  0
    8.6574   45.6659   33.8849 C   0  0  0  0  0  0  0  0  0  0  0  0
    8.8001   45.9306   35.3558 C   0  0  0  0  0  0  0  0  0  0  0  0
    8.9839   44.8579   36.2321 O   0  0  0  0  0  0  0  0  0  0  0  0
    8.7614   47.1149   35.7881 O   0  0  0  0  0  0  0  0  0  0  0  0
    9.0982   45.0188   37.6408 C   0  0  0  0  0  0  0  0  0  0  0  0
    9.4243   43.6882   38.2653 C   0  0  0  0  0  0  0  0  0  0  0  0
    8.4219   42.7341   38.5839 C   0  0  0  0  0  0  0  0  0  0  0  0
   10.7730   43.3813   38.5218 C   0  0  0  0  0  0  0  0  0  0  0  0
    7.0313   42.9693   38.2974 N   0  0  0  0  0  4  0  0  0  0  0  0
    8.7992   41.5257   39.1985 C   0  0  0  0  0  0  0  0  0  0  0  0
   11.1267   42.1702   39.1179 C   0  0  0  0  0  0  0  0  0  0  0  0
    6.6491   43.5575   37.1142 O   0  0  0  0  0  1  0  0  0  0  0  0
    6.1501   42.4844   39.0371 O   0  0  0  0  0  0  0  0  0  0  0  0
   10.1412   41.2470   39.4614 C   0  0  0  0  0  0  0  0  0  0  0  0
    8.8078   40.1913   34.2081 O   0  0  0  0  0  0  0  0  0  0  0  0
   11.2383   40.7894   33.3689 O   0  0  0  0  0  0  0  0  0  0  0  0
   10.9195   40.6894   31.9951 C   0  0  0  0  0  0  0  0  0  0  0  0
   11.5171   39.3801   31.4397 C   0  0  0  0  0  0  0  0  0  0  0  0
   12.7479   39.0861   32.0733 O   0  0  0  0  0  0  0  0  0  0  0  0
   10.6031   38.1891   31.6667 C   0  0  0  0  0  0  0  0  0  0  0  0
   12.9335   37.6796   32.0280 C   0  0  0  0  0  0  0  0  0  0  0  0
    9.6397   38.0777   30.6457 O   0  0  0  0  0  0  0  0  0  0  0  0
   11.5739   37.0154   31.7058 C   0  0  0  0  0  0  0  0  0  0  0  0
   13.4902   37.2178   33.3231 N   0  0  0  0  0  0  0  0  0  0  0  0
   11.6211   36.3376   30.4695 O   0  0  0  0  0  0  0  0  0  0  0  0
   14.4761   36.3273   33.5725 C   0  0  0  0  0  0  0  0  0  0  0  0
   13.1178   37.6317   34.5685 C   0  0  0  0  0  0  0  0  0  0  0  0
   15.2063   35.6139   32.6738 N   0  0  0  0  0  0  0  0  0  0  0  0
   14.6733   36.2278   34.9180 C   0  0  0  0  0  0  0  0  0  0  0  0
   13.8225   37.0460   35.5780 N   0  0  0  0  0  0  0  0  0  0  0  0
   16.1636   34.7595   33.1546 C   0  0  0  0  0  0  0  0  0  0  0  0
   15.6515   35.3494   35.4130 C   0  0  0  0  0  0  0  0  0  0  0  0
   16.3790   34.6311   34.5041 N   0  0  0  0  0  0  0  0  0  0  0  0
   15.9001   35.1936   36.8088 N   0  0  0  0  0  0  0  0  0  0  0  0
    9.7857   45.0045   32.1581 H   0  0  0  0  0  0  0  0  0  0  0  0
   11.8815   45.7168   32.8992 H   0  0  0  0  0  0  0  0  0  0  0  0
   10.8061   46.9735   33.0993 H   0  0  0  0  0  0  0  0  0  0  0  0
    7.8251   44.9459   33.7294 H   0  0  0  0  0  0  0  0  0  0  0  0
    8.3709   46.6060   33.3643 H   0  0  0  0  0  0  0  0  0  0  0  0
    8.1521   45.4252   38.0579 H   0  0  0  0  0  0  0  0  0  0  0  0
    9.8993   45.7569   37.8670 H   0  0  0  0  0  0  0  0  0  0  0  0
   11.5551   44.0851   38.2644 H   0  0  0  0  0  0  0  0  0  0  0  0
    8.0517   40.7858   39.4558 H   0  0  0  0  0  0  0  0  0  0  0  0
   12.1675   41.9480   39.3148 H   0  0  0  0  0  0  0  0  0  0  0  0
   10.4179   40.3088   39.9247 H   0  0  0  0  0  0  0  0  0  0  0  0
   11.4015   41.5437   31.4735 H   0  0  0  0  0  0  0  0  0  0  0  0
    9.8317   40.7397   31.7548 H   0  0  0  0  0  0  0  0  0  0  0  0
   11.6982   39.5044   30.3471 H   0  0  0  0  0  0  0  0  0  0  0  0
   10.1090   38.2632   32.6650 H   0  0  0  0  0  0  0  0  0  0  0  0
   13.6656   37.4540   31.2208 H   0  0  0  0  0  0  0  0  0  0  0  0
    8.8965   38.6900   30.8853 H   0  0  0  0  0  0  0  0  0  0  0  0
   11.2845   36.3060   32.5176 H   0  0  0  0  0  0  0  0  0  0  0  0
   10.8523   35.7095   30.4590 H   0  0  0  0  0  0  0  0  0  0  0  0
   12.3353   38.3590   34.7441 H   0  0  0  0  0  0  0  0  0  0  0  0
   16.7570   34.1788   32.4619 H   0  0  0  0  0  0  0  0  0  0  0  0
   16.6359   34.5317   37.1414 H   0  0  0  0  0  0  0  0  0  0  0  0
   15.3529   35.7359   37.5137 H   0  0  0  0  0  0  0  0  0  0  0  0
  1  2  2  0
  1  3  1  0
  3  4  1  0
  4  5  1  0
  6  1  1  0
  7  6  1  0
  6  8  1  0
  8  9  1  0
  9 10  1  0
  9 11  2  0
 10 12  1  0
 12 13  1  0
 13 14  2  0
 15 13  1  0
 14 16  1  0
 14 17  1  0
 18 15  2  0
 16 19  1  0
 16 20  2  0
 17 21  2  0
 21 18  1  0
  4 22  2  0
  4 23  1  0
 24 23  1  0
 24 25  1  0
 25 26  1  0
 25 27  1  0
 26 28  1  0
 27 29  1  0
 27 30  1  0
 30 28  1  0
 28 31  1  0
 30 32  1  0
 33 31  1  0
 34 31  1  0
 35 33  2  0
 33 36  1  0
 37 34  2  0
 38 35  1  0
 36 39  2  0
 36 37  1  0
 40 38  2  0
 40 39  1  0
 39 41  1  0
  6 42  1  6
  7 43  1  0
  7 44  1  0
  8 45  1  0
  8 46  1  0
 12 47  1  0
 12 48  1  0
 15 49  1  0
 17 50  1  0
 18 51  1  0
 21 52  1  0
 24 53  1  0
 24 54  1  0
 25 55  1  0
 27 56  1  0
 28 57  1  0
 29 58  1  0
 30 59  1  0
 32 60  1  0
 34 61  1  0
 38 62  1  0
 41 63  1  0
 41 64  1  0
M  CHG  3   5  -1  16   1  19  -1
M  END
>  <EmbedRMS>  (219) 
0.08955698983063735

$$$$

     RDKit          3D

 64 67  0  0  0  0  0  0  0  0999 V2000
   10.2785   43.7754   33.8069 C   0  0  0  0  0  0  0  0  0  0  0  0
   11.4038   43.5900   34.3582 O   0  0  0  0  0  0  0  0  0  0  0  0
    9.3626   42.7313   33.7011 O   0  0  0  0  0  0  0  0  0  0  0  0
    9.8868   41.2348   34.2838 P   0  0  0  0  0  5  0  0  0  0  0  0
   10.3675   41.4709   35.8740 O   0  0  0  0  0  1  0  0  0  0  0  0
    9.9607   45.1131   33.2321 C   0  0  2  0  0  0  0  0  0  0  0  0
   11.0750   46.0257   33.4944 N   0  0  0  0  0  0  0  0  0  0  0  0
    8.6447   45.6836   33.8074 C   0  0  0  0  0  0  0  0  0  0  0  0
    7.4379   45.0688   33.1668 C   0  0  0  0  0  0  0  0  0  0  0  0
    6.5737   44.2777   33.9319 O   0  0  0  0  0  0  0  0  0  0  0  0
    7.1975   45.2950   31.9496 O   0  0  0  0  0  0  0  0  0  0  0  0
    5.3924   43.6725   33.4083 C   0  0  0  0  0  0  0  0  0  0  0  0
    5.7329   42.4316   32.6188 C   0  0  0  0  0  0  0  0  0  0  0  0
    5.9283   41.1703   33.2413 C   0  0  0  0  0  0  0  0  0  0  0  0
    5.8302   42.5290   31.2188 C   0  0  0  0  0  0  0  0  0  0  0  0
    5.8644   41.0110   34.6707 N   0  0  0  0  0  4  0  0  0  0  0  0
    6.1790   40.0423   32.4374 C   0  0  0  0  0  0  0  0  0  0  0  0
    6.0996   41.4016   30.4425 C   0  0  0  0  0  0  0  0  0  0  0  0
    6.4143   41.9547   35.5069 O   0  0  0  0  0  1  0  0  0  0  0  0
    5.4685   39.9339   35.1625 O   0  0  0  0  0  0  0  0  0  0  0  0
    6.2667   40.1596   31.0500 C   0  0  0  0  0  0  0  0  0  0  0  0
    8.8170   40.1852   34.2104 O   0  0  0  0  0  0  0  0  0  0  0  0
   11.2392   40.7945   33.3668 O   0  0  0  0  0  0  0  0  0  0  0  0
   10.9164   40.6892   31.9941 C   0  0  0  0  0  0  0  0  0  0  0  0
   11.5170   39.3803   31.4401 C   0  0  0  0  0  0  0  0  0  0  0  0
   12.7474   39.0881   32.0756 O   0  0  0  0  0  0  0  0  0  0  0  0
   10.6048   38.1874   31.6657 C   0  0  0  0  0  0  0  0  0  0  0  0
   12.9357   37.6822   32.0290 C   0  0  0  0  0  0  0  0  0  0  0  0
    9.6425   38.0732   30.6444 O   0  0  0  0  0  0  0  0  0  0  0  0
   11.5763   37.0160   31.7049 C   0  0  0  0  0  0  0  0  0  0  0  0
   13.4907   37.2186   33.3237 N   0  0  0  0  0  0  0  0  0  0  0  0
   11.6102   36.3399   30.4684 O   0  0  0  0  0  0  0  0  0  0  0  0
   14.4761   36.3275   33.5728 C   0  0  0  0  0  0  0  0  0  0  0  0
   13.1180   37.6319   34.5690 C   0  0  0  0  0  0  0  0  0  0  0  0
   15.2062   35.6142   32.6738 N   0  0  0  0  0  0  0  0  0  0  0  0
   14.6732   36.2276   34.9182 C   0  0  0  0  0  0  0  0  0  0  0  0
   13.8225   37.0457   35.5784 N   0  0  0  0  0  0  0  0  0  0  0  0
   16.1634   34.7596   33.1545 C   0  0  0  0  0  0  0  0  0  0  0  0
   15.6515   35.3493   35.4130 C   0  0  0  0  0  0  0  0  0  0  0  0
   16.3790   34.6311   34.5040 N   0  0  0  0  0  0  0  0  0  0  0  0
   15.9002   35.1934   36.8088 N   0  0  0  0  0  0  0  0  0  0  0  0
    9.8675   44.9939   32.1295 H   0  0  0  0  0  0  0  0  0  0  0  0
   10.9263   46.9027   32.9437 H   0  0  0  0  0  0  0  0  0  0  0  0
   11.0788   46.2917   34.5071 H   0  0  0  0  0  0  0  0  0  0  0  0
    8.6076   45.5328   34.9089 H   0  0  0  0  0  0  0  0  0  0  0  0
    8.5999   46.7791   33.6239 H   0  0  0  0  0  0  0  0  0  0  0  0
    4.7160   43.4104   34.2482 H   0  0  0  0  0  0  0  0  0  0  0  0
    4.8331   44.4053   32.7854 H   0  0  0  0  0  0  0  0  0  0  0  0
    5.6798   43.4788   30.7214 H   0  0  0  0  0  0  0  0  0  0  0  0
    6.3265   39.0695   32.8892 H   0  0  0  0  0  0  0  0  0  0  0  0
    6.1678   41.4899   29.3659 H   0  0  0  0  0  0  0  0  0  0  0  0
    6.4650   39.2849   30.4445 H   0  0  0  0  0  0  0  0  0  0  0  0
   11.3935   41.5438   31.4687 H   0  0  0  0  0  0  0  0  0  0  0  0
    9.8273   40.7359   31.7569 H   0  0  0  0  0  0  0  0  0  0  0  0
   11.6993   39.5046   30.3476 H   0  0  0  0  0  0  0  0  0  0  0  0
   10.1087   38.2618   32.6631 H   0  0  0  0  0  0  0  0  0  0  0  0
   13.6692   37.4597   31.2223 H   0  0  0  0  0  0  0  0  0  0  0  0
    8.9072   38.6974   30.8750 H   0  0  0  0  0  0  0  0  0  0  0  0
   11.2688   36.3072   32.5095 H   0  0  0  0  0  0  0  0  0  0  0  0
   12.1426   35.5152   30.6159 H   0  0  0  0  0  0  0  0  0  0  0  0
   12.3357   38.3594   34.7447 H   0  0  0  0  0  0  0  0  0  0  0  0
   16.7567   34.1790   32.4617 H   0  0  0  0  0  0  0  0  0  0  0  0
   16.6361   34.5315   37.1413 H   0  0  0  0  0  0  0  0  0  0  0  0
   15.3530   35.7356   37.5137 H   0  0  0  0  0  0  0  0  0  0  0  0
  1  2  2  0
  1  3  1  0
  3  4  1  0
  4  5  1  0
  6  1  1  0
  7  6  1  0
  6  8  1  0
  8  9  1  0
  9 10  1  0
  9 11  2  0
 10 12  1  0
 12 13  1  0
 13 14  2  0
 15 13  1  0
 14 16  1  0
 14 17  1  0
 18 15  2  0
 16 19  1  0
 16 20  2  0
 17 21  2  0
 21 18  1  0
  4 22  2  0
  4 23  1  0
 24 23  1  0
 24 25  1  0
 25 26  1  0
 25 27  1  0
 26 28  1  0
 27 29  1  0
 27 30  1  0
 30 28  1  0
 28 31  1  0
 30 32  1  0
 33 31  1  0
 34 31  1  0
 35 33  2  0
 33 36  1  0
 37 34  2  0
 38 35  1  0
 36 39  2  0
 36 37  1  0
 40 38  2  0
 40 39  1  0
 39 41  1  0
  6 42  1  6
  7 43  1  0
  7 44  1  0
  8 45  1  0
  8 46  1  0
 12 47  1  0
 12 48  1  0
 15 49  1  0
 17 50  1  0
 18 51  1  0
 21 52  1  0
 24 53  1  0
 24 54  1  0
 25 55  1  0
 27 56  1  0
 28 57  1  0
 29 58  1  0
 30 59  1  0
 32 60  1  0
 34 61  1  0
 38 62  1  0
 41 63  1  0
 41 64  1  0
M  CHG  3   5  -1  16   1  19  -1
M  END
>  <EmbedRMS>  (220) 
0.08825521541886182

$$$$

     RDKit          3D

 64 67  0  0  0  0  0  0  0  0999 V2000
   10.2829   43.7759   33.8113 C   0  0  0  0  0  0  0  0  0  0  0  0
   11.4048   43.5941   34.3695 O   0  0  0  0  0  0  0  0  0  0  0  0
    9.3716   42.7288   33.7046 O   0  0  0  0  0  0  0  0  0  0  0  0
    9.8884   41.2321   34.2843 P   0  0  0  0  0  5  0  0  0  0  0  0
   10.3691   41.4660   35.8748 O   0  0  0  0  0  1  0  0  0  0  0  0
    9.9630   45.1117   33.2230 C   0  0  2  0  0  0  0  0  0  0  0  0
   11.0672   46.0346   33.4913 N   0  0  0  0  0  0  0  0  0  0  0  0
    8.6467   45.6856   33.7984 C   0  0  0  0  0  0  0  0  0  0  0  0
    7.4347   44.8862   33.4088 C   0  0  0  0  0  0  0  0  0  0  0  0
    7.4658   44.0890   32.2611 O   0  0  0  0  0  0  0  0  0  0  0  0
    6.3921   44.9518   34.1150 O   0  0  0  0  0  0  0  0  0  0  0  0
    6.4657   43.1248   31.9476 C   0  0  0  0  0  0  0  0  0  0  0  0
    6.9755   42.1613   30.8983 C   0  0  0  0  0  0  0  0  0  0  0  0
    6.5152   40.8185   30.8343 C   0  0  0  0  0  0  0  0  0  0  0  0
    7.9348   42.5987   29.9625 C   0  0  0  0  0  0  0  0  0  0  0  0
    5.4770   40.3292   31.7005 N   0  0  0  0  0  4  0  0  0  0  0  0
    7.0841   39.9409   29.8954 C   0  0  0  0  0  0  0  0  0  0  0  0
    8.4763   41.7141   29.0293 C   0  0  0  0  0  0  0  0  0  0  0  0
    5.4763   39.0109   32.0947 O   0  0  0  0  0  1  0  0  0  0  0  0
    4.4729   41.0301   31.9432 O   0  0  0  0  0  0  0  0  0  0  0  0
    8.0590   40.3858   29.0022 C   0  0  0  0  0  0  0  0  0  0  0  0
    8.8084   40.1917   34.2070 O   0  0  0  0  0  0  0  0  0  0  0  0
   11.2379   40.7911   33.3639 O   0  0  0  0  0  0  0  0  0  0  0  0
   10.9104   40.6839   31.9922 C   0  0  0  0  0  0  0  0  0  0  0  0
   11.5146   39.3772   31.4384 C   0  0  0  0  0  0  0  0  0  0  0  0
   12.7458   39.0861   32.0730 O   0  0  0  0  0  0  0  0  0  0  0  0
   10.6041   38.1859   31.6670 C   0  0  0  0  0  0  0  0  0  0  0  0
   12.9341   37.6797   32.0279 C   0  0  0  0  0  0  0  0  0  0  0  0
    9.6386   38.0884   30.6487 O   0  0  0  0  0  0  0  0  0  0  0  0
   11.5760   37.0129   31.7059 C   0  0  0  0  0  0  0  0  0  0  0  0
   13.4910   37.2185   33.3231 N   0  0  0  0  0  0  0  0  0  0  0  0
   11.6233   36.3368   30.4688 O   0  0  0  0  0  0  0  0  0  0  0  0
   14.4764   36.3275   33.5725 C   0  0  0  0  0  0  0  0  0  0  0  0
   13.1181   37.6320   34.5684 C   0  0  0  0  0  0  0  0  0  0  0  0
   15.2065   35.6140   32.6738 N   0  0  0  0  0  0  0  0  0  0  0  0
   14.6734   36.2278   34.9180 C   0  0  0  0  0  0  0  0  0  0  0  0
   13.8225   37.0459   35.5780 N   0  0  0  0  0  0  0  0  0  0  0  0
   16.1636   34.7594   33.1546 C   0  0  0  0  0  0  0  0  0  0  0  0
   15.6515   35.3494   35.4130 C   0  0  0  0  0  0  0  0  0  0  0  0
   16.3790   34.6310   34.5041 N   0  0  0  0  0  0  0  0  0  0  0  0
   15.9001   35.1935   36.8088 N   0  0  0  0  0  0  0  0  0  0  0  0
    9.8607   44.9936   32.1202 H   0  0  0  0  0  0  0  0  0  0  0  0
   10.8315   46.9660   33.0774 H   0  0  0  0  0  0  0  0  0  0  0  0
   11.9101   45.7056   32.9647 H   0  0  0  0  0  0  0  0  0  0  0  0
    8.7175   45.7355   34.9074 H   0  0  0  0  0  0  0  0  0  0  0  0
    8.4988   46.7202   33.4215 H   0  0  0  0  0  0  0  0  0  0  0  0
    6.2196   42.5667   32.8767 H   0  0  0  0  0  0  0  0  0  0  0  0
    5.5556   43.6396   31.5737 H   0  0  0  0  0  0  0  0  0  0  0  0
    8.2822   43.6242   29.9619 H   0  0  0  0  0  0  0  0  0  0  0  0
    6.7555   38.9108   29.8401 H   0  0  0  0  0  0  0  0  0  0  0  0
    9.2252   42.0592   28.3283 H   0  0  0  0  0  0  0  0  0  0  0  0
    8.4842   39.7005   28.2803 H   0  0  0  0  0  0  0  0  0  0  0  0
    9.8192   40.7160   31.7597 H   0  0  0  0  0  0  0  0  0  0  0  0
   11.3773   41.5418   31.4629 H   0  0  0  0  0  0  0  0  0  0  0  0
   11.6954   39.5013   30.3456 H   0  0  0  0  0  0  0  0  0  0  0  0
   10.1085   38.2768   32.6628 H   0  0  0  0  0  0  0  0  0  0  0  0
   13.6666   37.4552   31.2209 H   0  0  0  0  0  0  0  0  0  0  0  0
    8.9690   37.4256   30.9608 H   0  0  0  0  0  0  0  0  0  0  0  0
   11.2863   36.3041   32.5180 H   0  0  0  0  0  0  0  0  0  0  0  0
   10.8670   35.6938   30.4650 H   0  0  0  0  0  0  0  0  0  0  0  0
   12.3354   38.3590   34.7439 H   0  0  0  0  0  0  0  0  0  0  0  0
   16.7569   34.1787   32.4619 H   0  0  0  0  0  0  0  0  0  0  0  0
   16.6359   34.5316   37.1414 H   0  0  0  0  0  0  0  0  0  0  0  0
   15.3529   35.7358   37.5137 H   0  0  0  0  0  0  0  0  0  0  0  0
  1  2  2  0
  1  3  1  0
  3  4  1  0
  4  5  1  0
  6  1  1  0
  7  6  1  0
  6  8  1  0
  8  9  1  0
  9 10  1  0
  9 11  2  0
 10 12  1  0
 12 13  1  0
 13 14  2  0
 15 13  1  0
 14 16  1  0
 14 17  1  0
 18 15  2  0
 16 19  1  0
 16 20  2  0
 17 21  2  0
 21 18  1  0
  4 22  2  0
  4 23  1  0
 24 23  1  0
 24 25  1  0
 25 26  1  0
 25 27  1  0
 26 28  1  0
 27 29  1  0
 27 30  1  0
 30 28  1  0
 28 31  1  0
 30 32  1  0
 33 31  1  0
 34 31  1  0
 35 33  2  0
 33 36  1  0
 37 34  2  0
 38 35  1  0
 36 39  2  0
 36 37  1  0
 40 38  2  0
 40 39  1  0
 39 41  1  0
  6 42  1  6
  7 43  1  0
  7 44  1  0
  8 45  1  0
  8 46  1  0
 12 47  1  0
 12 48  1  0
 15 49  1  0
 17 50  1  0
 18 51  1  0
 21 52  1  0
 24 53  1  0
 24 54  1  0
 25 55  1  0
 27 56  1  0
 28 57  1  0
 29 58  1  0
 30 59  1  0
 32 60  1  0
 34 61  1  0
 38 62  1  0
 41 63  1  0
 41 64  1  0
M  CHG  3   5  -1  16   1  19  -1
M  END
>  <EmbedRMS>  (221) 
0.08952441809433863

$$$$

     RDKit          3D

 64 67  0  0  0  0  0  0  0  0999 V2000
   10.2848   43.7726   33.8068 C   0  0  0  0  0  0  0  0  0  0  0  0
   11.4104   43.5874   34.3562 O   0  0  0  0  0  0  0  0  0  0  0  0
    9.3662   42.7315   33.7017 O   0  0  0  0  0  0  0  0  0  0  0  0
    9.8848   41.2345   34.2850 P   0  0  0  0  0  5  0  0  0  0  0  0
   10.3657   41.4699   35.8753 O   0  0  0  0  0  1  0  0  0  0  0  0
    9.9582   45.1108   33.2439 C   0  0  2  0  0  0  0  0  0  0  0  0
   11.0676   46.0366   33.4847 N   0  0  0  0  0  0  0  0  0  0  0  0
    8.6200   45.6582   33.7900 C   0  0  0  0  0  0  0  0  0  0  0  0
    8.6115   45.8081   35.2826 C   0  0  0  0  0  0  0  0  0  0  0  0
    8.9608   47.0373   35.8535 O   0  0  0  0  0  0  0  0  0  0  0  0
    8.3137   44.8215   36.0103 O   0  0  0  0  0  0  0  0  0  0  0  0
    8.9910   47.2621   37.2629 C   0  0  0  0  0  0  0  0  0  0  0  0
    7.5974   47.2806   37.8561 C   0  0  0  0  0  0  0  0  0  0  0  0
    7.3416   46.8307   39.1791 C   0  0  0  0  0  0  0  0  0  0  0  0
    6.5287   47.7803   37.0864 C   0  0  0  0  0  0  0  0  0  0  0  0
    8.4005   46.4134   40.0574 N   0  0  0  0  0  4  0  0  0  0  0  0
    6.0183   46.8063   39.6529 C   0  0  0  0  0  0  0  0  0  0  0  0
    5.2248   47.7665   37.5832 C   0  0  0  0  0  0  0  0  0  0  0  0
    8.1696   45.4289   40.9904 O   0  0  0  0  0  1  0  0  0  0  0  0
    9.4572   47.0741   40.1296 O   0  0  0  0  0  0  0  0  0  0  0  0
    4.9683   47.2687   38.8589 C   0  0  0  0  0  0  0  0  0  0  0  0
    8.8076   40.1913   34.2091 O   0  0  0  0  0  0  0  0  0  0  0  0
   11.2366   40.7909   33.3691 O   0  0  0  0  0  0  0  0  0  0  0  0
   10.9151   40.6898   31.9961 C   0  0  0  0  0  0  0  0  0  0  0  0
   11.5268   39.3899   31.4375 C   0  0  0  0  0  0  0  0  0  0  0  0
   12.7506   39.0917   32.0840 O   0  0  0  0  0  0  0  0  0  0  0  0
   10.6121   38.1916   31.6452 C   0  0  0  0  0  0  0  0  0  0  0  0
   12.9429   37.6854   32.0295 C   0  0  0  0  0  0  0  0  0  0  0  0
    9.6069   38.0858   30.6603 O   0  0  0  0  0  0  0  0  0  0  0  0
   11.5845   37.0186   31.6880 C   0  0  0  0  0  0  0  0  0  0  0  0
   13.4899   37.2164   33.3250 N   0  0  0  0  0  0  0  0  0  0  0  0
   11.6202   36.3063   30.4693 O   0  0  0  0  0  0  0  0  0  0  0  0
   14.4759   36.3263   33.5738 C   0  0  0  0  0  0  0  0  0  0  0  0
   13.1176   37.6307   34.5699 C   0  0  0  0  0  0  0  0  0  0  0  0
   15.2065   35.6139   32.6746 N   0  0  0  0  0  0  0  0  0  0  0  0
   14.6731   36.2267   34.9191 C   0  0  0  0  0  0  0  0  0  0  0  0
   13.8224   37.0450   35.5792 N   0  0  0  0  0  0  0  0  0  0  0  0
   16.1640   34.7596   33.1551 C   0  0  0  0  0  0  0  0  0  0  0  0
   15.6517   35.3489   35.4136 C   0  0  0  0  0  0  0  0  0  0  0  0
   16.3795   34.6310   34.5045 N   0  0  0  0  0  0  0  0  0  0  0  0
   15.9006   35.1931   36.8094 N   0  0  0  0  0  0  0  0  0  0  0  0
    9.8484   44.9838   32.1445 H   0  0  0  0  0  0  0  0  0  0  0  0
   10.8538   46.9455   33.0132 H   0  0  0  0  0  0  0  0  0  0  0  0
   11.1598   46.2306   34.5084 H   0  0  0  0  0  0  0  0  0  0  0  0
    8.4112   46.6466   33.3268 H   0  0  0  0  0  0  0  0  0  0  0  0
    7.7914   44.9808   33.4879 H   0  0  0  0  0  0  0  0  0  0  0  0
    9.4706   48.2441   37.4560 H   0  0  0  0  0  0  0  0  0  0  0  0
    9.6188   46.4719   37.7264 H   0  0  0  0  0  0  0  0  0  0  0  0
    6.7000   48.1696   36.0905 H   0  0  0  0  0  0  0  0  0  0  0  0
    5.8020   46.4543   40.6537 H   0  0  0  0  0  0  0  0  0  0  0  0
    4.4106   48.1397   36.9753 H   0  0  0  0  0  0  0  0  0  0  0  0
    3.9555   47.2560   39.2404 H   0  0  0  0  0  0  0  0  0  0  0  0
   11.3818   41.5527   31.4745 H   0  0  0  0  0  0  0  0  0  0  0  0
    9.8249   40.7189   31.7591 H   0  0  0  0  0  0  0  0  0  0  0  0
   11.7317   39.5339   30.3522 H   0  0  0  0  0  0  0  0  0  0  0  0
   10.1213   38.2681   32.6413 H   0  0  0  0  0  0  0  0  0  0  0  0
   13.6882   37.4710   31.2319 H   0  0  0  0  0  0  0  0  0  0  0  0
   10.0257   38.1751   29.7656 H   0  0  0  0  0  0  0  0  0  0  0  0
   11.2796   36.3123   32.4915 H   0  0  0  0  0  0  0  0  0  0  0  0
   11.9872   36.9100   29.7715 H   0  0  0  0  0  0  0  0  0  0  0  0
   12.3365   38.3595   34.7454 H   0  0  0  0  0  0  0  0  0  0  0  0
   16.7576   34.1795   32.4622 H   0  0  0  0  0  0  0  0  0  0  0  0
   15.3532   35.7351   37.5143 H   0  0  0  0  0  0  0  0  0  0  0  0
   16.6368   34.5316   37.1418 H   0  0  0  0  0  0  0  0  0  0  0  0
  1  2  2  0
  1  3  1  0
  3  4  1  0
  4  5  1  0
  6  1  1  0
  7  6  1  0
  6  8  1  0
  8  9  1  0
  9 10  1  0
  9 11  2  0
 10 12  1  0
 12 13  1  0
 13 14  2  0
 15 13  1  0
 14 16  1  0
 14 17  1  0
 18 15  2  0
 16 19  1  0
 16 20  2  0
 17 21  2  0
 21 18  1  0
  4 22  2  0
  4 23  1  0
 24 23  1  0
 24 25  1  0
 25 26  1  0
 25 27  1  0
 26 28  1  0
 27 29  1  0
 27 30  1  0
 30 28  1  0
 28 31  1  0
 30 32  1  0
 33 31  1  0
 34 31  1  0
 35 33  2  0
 33 36  1  0
 37 34  2  0
 38 35  1  0
 36 39  2  0
 36 37  1  0
 40 38  2  0
 40 39  1  0
 39 41  1  0
  6 42  1  6
  7 43  1  0
  7 44  1  0
  8 45  1  0
  8 46  1  0
 12 47  1  0
 12 48  1  0
 15 49  1  0
 17 50  1  0
 18 51  1  0
 21 52  1  0
 24 53  1  0
 24 54  1  0
 25 55  1  0
 27 56  1  0
 28 57  1  0
 29 58  1  0
 30 59  1  0
 32 60  1  0
 34 61  1  0
 38 62  1  0
 41 63  1  0
 41 64  1  0
M  CHG  3   5  -1  16   1  19  -1
M  END
>  <EmbedRMS>  (222) 
0.0868674449731149

$$$$

     RDKit          3D

 64 67  0  0  0  0  0  0  0  0999 V2000
   10.2829   43.7756   33.8075 C   0  0  0  0  0  0  0  0  0  0  0  0
   11.4085   43.5915   34.3576 O   0  0  0  0  0  0  0  0  0  0  0  0
    9.3664   42.7322   33.7017 O   0  0  0  0  0  0  0  0  0  0  0  0
    9.8859   41.2349   34.2841 P   0  0  0  0  0  5  0  0  0  0  0  0
   10.3672   41.4696   35.8744 O   0  0  0  0  0  1  0  0  0  0  0  0
    9.9534   45.1118   33.2437 C   0  0  2  0  0  0  0  0  0  0  0  0
   11.0725   46.0264   33.4848 N   0  0  0  0  0  0  0  0  0  0  0  0
    8.6400   45.6435   33.8559 C   0  0  0  0  0  0  0  0  0  0  0  0
    8.2380   46.9550   33.2551 C   0  0  0  0  0  0  0  0  0  0  0  0
    8.3506   48.1233   34.0143 O   0  0  0  0  0  0  0  0  0  0  0  0
    7.8132   46.9968   32.0680 O   0  0  0  0  0  0  0  0  0  0  0  0
    7.9894   49.4047   33.5103 C   0  0  0  0  0  0  0  0  0  0  0  0
    8.1595   50.4364   34.5945 C   0  0  0  0  0  0  0  0  0  0  0  0
    9.3886   51.1128   34.8133 C   0  0  0  0  0  0  0  0  0  0  0  0
    7.0567   50.7309   35.4163 C   0  0  0  0  0  0  0  0  0  0  0  0
   10.5667   50.8110   34.0449 N   0  0  0  0  0  4  0  0  0  0  0  0
    9.4561   52.1043   35.8095 C   0  0  0  0  0  0  0  0  0  0  0  0
    7.1497   51.7057   36.4105 C   0  0  0  0  0  0  0  0  0  0  0  0
   10.8893   49.5082   33.7448 O   0  0  0  0  0  1  0  0  0  0  0  0
   11.4010   51.7071   33.8004 O   0  0  0  0  0  0  0  0  0  0  0  0
    8.3447   52.3967   36.6014 C   0  0  0  0  0  0  0  0  0  0  0  0
    8.8085   40.1918   34.2087 O   0  0  0  0  0  0  0  0  0  0  0  0
   11.2371   40.7919   33.3667 O   0  0  0  0  0  0  0  0  0  0  0  0
   10.9133   40.6862   31.9944 C   0  0  0  0  0  0  0  0  0  0  0  0
   11.5169   39.3798   31.4410 C   0  0  0  0  0  0  0  0  0  0  0  0
   12.7487   39.0887   32.0763 O   0  0  0  0  0  0  0  0  0  0  0  0
   10.6051   38.1876   31.6659 C   0  0  0  0  0  0  0  0  0  0  0  0
   12.9411   37.6829   32.0278 C   0  0  0  0  0  0  0  0  0  0  0  0
    9.6358   38.0930   30.6503 O   0  0  0  0  0  0  0  0  0  0  0  0
   11.5827   37.0180   31.6937 C   0  0  0  0  0  0  0  0  0  0  0  0
   13.4909   37.2177   33.3239 N   0  0  0  0  0  0  0  0  0  0  0  0
   11.6141   36.3180   30.4675 O   0  0  0  0  0  0  0  0  0  0  0  0
   14.4762   36.3270   33.5733 C   0  0  0  0  0  0  0  0  0  0  0  0
   13.1179   37.6316   34.5689 C   0  0  0  0  0  0  0  0  0  0  0  0
   15.2067   35.6140   32.6743 N   0  0  0  0  0  0  0  0  0  0  0  0
   14.6731   36.2272   34.9186 C   0  0  0  0  0  0  0  0  0  0  0  0
   13.8223   37.0456   35.5785 N   0  0  0  0  0  0  0  0  0  0  0  0
   16.1639   34.7595   33.1550 C   0  0  0  0  0  0  0  0  0  0  0  0
   15.6515   35.3491   35.4134 C   0  0  0  0  0  0  0  0  0  0  0  0
   16.3793   34.6310   34.5045 N   0  0  0  0  0  0  0  0  0  0  0  0
   15.9002   35.1933   36.8093 N   0  0  0  0  0  0  0  0  0  0  0  0
    9.8200   44.9855   32.1460 H   0  0  0  0  0  0  0  0  0  0  0  0
   10.9499   46.8754   32.8870 H   0  0  0  0  0  0  0  0  0  0  0  0
   11.0673   46.3393   34.4837 H   0  0  0  0  0  0  0  0  0  0  0  0
    8.7513   45.7594   34.9564 H   0  0  0  0  0  0  0  0  0  0  0  0
    7.8195   44.9146   33.6771 H   0  0  0  0  0  0  0  0  0  0  0  0
    8.6093   49.6584   32.6240 H   0  0  0  0  0  0  0  0  0  0  0  0
    6.9310   49.3824   33.1682 H   0  0  0  0  0  0  0  0  0  0  0  0
    6.1161   50.2112   35.2794 H   0  0  0  0  0  0  0  0  0  0  0  0
   10.3808   52.6384   35.9885 H   0  0  0  0  0  0  0  0  0  0  0  0
    6.2914   51.9288   37.0312 H   0  0  0  0  0  0  0  0  0  0  0  0
    8.4134   53.1548   37.3710 H   0  0  0  0  0  0  0  0  0  0  0  0
    9.8231   40.7208   31.7583 H   0  0  0  0  0  0  0  0  0  0  0  0
   11.3848   41.5434   31.4679 H   0  0  0  0  0  0  0  0  0  0  0  0
   11.6994   39.5064   30.3488 H   0  0  0  0  0  0  0  0  0  0  0  0
   10.1120   38.2722   32.6632 H   0  0  0  0  0  0  0  0  0  0  0  0
   13.6816   37.4634   31.2269 H   0  0  0  0  0  0  0  0  0  0  0  0
    9.0037   37.3828   30.9349 H   0  0  0  0  0  0  0  0  0  0  0  0
   11.2846   36.3041   32.4928 H   0  0  0  0  0  0  0  0  0  0  0  0
   11.8850   36.9590   29.7589 H   0  0  0  0  0  0  0  0  0  0  0  0
   12.3363   38.3599   34.7441 H   0  0  0  0  0  0  0  0  0  0  0  0
   16.7574   34.1791   32.4623 H   0  0  0  0  0  0  0  0  0  0  0  0
   15.3529   35.7355   37.5141 H   0  0  0  0  0  0  0  0  0  0  0  0
   16.6363   34.5317   37.1418 H   0  0  0  0  0  0  0  0  0  0  0  0
  1  2  2  0
  1  3  1  0
  3  4  1  0
  4  5  1  0
  6  1  1  0
  7  6  1  0
  6  8  1  0
  8  9  1  0
  9 10  1  0
  9 11  2  0
 10 12  1  0
 12 13  1  0
 13 14  2  0
 15 13  1  0
 14 16  1  0
 14 17  1  0
 18 15  2  0
 16 19  1  0
 16 20  2  0
 17 21  2  0
 21 18  1  0
  4 22  2  0
  4 23  1  0
 24 23  1  0
 24 25  1  0
 25 26  1  0
 25 27  1  0
 26 28  1  0
 27 29  1  0
 27 30  1  0
 30 28  1  0
 28 31  1  0
 30 32  1  0
 33 31  1  0
 34 31  1  0
 35 33  2  0
 33 36  1  0
 37 34  2  0
 38 35  1  0
 36 39  2  0
 36 37  1  0
 40 38  2  0
 40 39  1  0
 39 41  1  0
  6 42  1  6
  7 43  1  0
  7 44  1  0
  8 45  1  0
  8 46  1  0
 12 47  1  0
 12 48  1  0
 15 49  1  0
 17 50  1  0
 18 51  1  0
 21 52  1  0
 24 53  1  0
 24 54  1  0
 25 55  1  0
 27 56  1  0
 28 57  1  0
 29 58  1  0
 30 59  1  0
 32 60  1  0
 34 61  1  0
 38 62  1  0
 41 63  1  0
 41 64  1  0
M  CHG  3   5  -1  16   1  19  -1
M  END
>  <EmbedRMS>  (223) 
0.08754797833108606

$$$$

     RDKit          3D

 64 67  0  0  0  0  0  0  0  0999 V2000
   10.2823   43.7726   33.8132 C   0  0  0  0  0  0  0  0  0  0  0  0
   11.4066   43.5833   34.3641 O   0  0  0  0  0  0  0  0  0  0  0  0
    9.3689   42.7287   33.6983 O   0  0  0  0  0  0  0  0  0  0  0  0
    9.8856   41.2322   34.2836 P   0  0  0  0  0  5  0  0  0  0  0  0
   10.3655   41.4684   35.8743 O   0  0  0  0  0  1  0  0  0  0  0  0
    9.9551   45.1194   33.2551 C   0  0  2  0  0  0  0  0  0  0  0  0
   11.0725   46.0421   33.4666 N   0  0  0  0  0  0  0  0  0  0  0  0
    8.6846   45.7121   33.8978 C   0  0  0  0  0  0  0  0  0  0  0  0
    7.4258   45.0246   33.4320 C   0  0  0  0  0  0  0  0  0  0  0  0
    6.8003   45.3268   32.2133 O   0  0  0  0  0  0  0  0  0  0  0  0
    6.9245   44.1233   34.1545 O   0  0  0  0  0  0  0  0  0  0  0  0
    7.1374   46.4254   31.3641 C   0  0  0  0  0  0  0  0  0  0  0  0
    6.6990   47.7446   31.9638 C   0  0  0  0  0  0  0  0  0  0  0  0
    7.4302   48.9439   31.7606 C   0  0  0  0  0  0  0  0  0  0  0  0
    5.4572   47.8080   32.6249 C   0  0  0  0  0  0  0  0  0  0  0  0
    8.6860   48.9530   31.0676 N   0  0  0  0  0  4  0  0  0  0  0  0
    6.9120   50.1590   32.2395 C   0  0  0  0  0  0  0  0  0  0  0  0
    4.9663   49.0219   33.1082 C   0  0  0  0  0  0  0  0  0  0  0  0
    9.7434   48.2226   31.5571 O   0  0  0  0  0  1  0  0  0  0  0  0
    8.9047   49.8184   30.1952 O   0  0  0  0  0  0  0  0  0  0  0  0
    5.6924   50.1955   32.9159 C   0  0  0  0  0  0  0  0  0  0  0  0
    8.8075   40.1901   34.2078 O   0  0  0  0  0  0  0  0  0  0  0  0
   11.2373   40.7886   33.3679 O   0  0  0  0  0  0  0  0  0  0  0  0
   10.9158   40.6879   31.9948 C   0  0  0  0  0  0  0  0  0  0  0  0
   11.5262   39.3869   31.4362 C   0  0  0  0  0  0  0  0  0  0  0  0
   12.7493   39.0891   32.0816 O   0  0  0  0  0  0  0  0  0  0  0  0
   10.6123   38.1893   31.6460 C   0  0  0  0  0  0  0  0  0  0  0  0
   12.9374   37.6825   32.0300 C   0  0  0  0  0  0  0  0  0  0  0  0
    9.6150   38.0838   30.6538 O   0  0  0  0  0  0  0  0  0  0  0  0
   11.5793   37.0136   31.7013 C   0  0  0  0  0  0  0  0  0  0  0  0
   13.4906   37.2169   33.3242 N   0  0  0  0  0  0  0  0  0  0  0  0
   11.6216   36.3252   30.4725 O   0  0  0  0  0  0  0  0  0  0  0  0
   14.4763   36.3266   33.5731 C   0  0  0  0  0  0  0  0  0  0  0  0
   13.1181   37.6308   34.5694 C   0  0  0  0  0  0  0  0  0  0  0  0
   15.2066   35.6137   32.6740 N   0  0  0  0  0  0  0  0  0  0  0  0
   14.6735   36.2270   34.9185 C   0  0  0  0  0  0  0  0  0  0  0  0
   13.8229   37.0451   35.5787 N   0  0  0  0  0  0  0  0  0  0  0  0
   16.1639   34.7593   33.1547 C   0  0  0  0  0  0  0  0  0  0  0  0
   15.6519   35.3489   35.4132 C   0  0  0  0  0  0  0  0  0  0  0  0
   16.3794   34.6308   34.5042 N   0  0  0  0  0  0  0  0  0  0  0  0
   15.9006   35.1931   36.8090 N   0  0  0  0  0  0  0  0  0  0  0  0
    9.7990   45.0084   32.1606 H   0  0  0  0  0  0  0  0  0  0  0  0
   11.9198   45.6864   32.9655 H   0  0  0  0  0  0  0  0  0  0  0  0
   11.2943   46.1150   34.4873 H   0  0  0  0  0  0  0  0  0  0  0  0
    8.6173   46.7936   33.6628 H   0  0  0  0  0  0  0  0  0  0  0  0
    8.7583   45.6405   35.0057 H   0  0  0  0  0  0  0  0  0  0  0  0
    8.2164   46.3932   31.1303 H   0  0  0  0  0  0  0  0  0  0  0  0
    6.6004   46.2959   30.4015 H   0  0  0  0  0  0  0  0  0  0  0  0
    4.8585   46.9156   32.7589 H   0  0  0  0  0  0  0  0  0  0  0  0
    7.4626   51.0802   32.0950 H   0  0  0  0  0  0  0  0  0  0  0  0
    4.0138   49.0541   33.6214 H   0  0  0  0  0  0  0  0  0  0  0  0
    5.3066   51.1368   33.2857 H   0  0  0  0  0  0  0  0  0  0  0  0
    9.8257   40.7182   31.7576 H   0  0  0  0  0  0  0  0  0  0  0  0
   11.3835   41.5502   31.4732 H   0  0  0  0  0  0  0  0  0  0  0  0
   11.7291   39.5286   30.3501 H   0  0  0  0  0  0  0  0  0  0  0  0
   10.1141   38.2719   32.6379 H   0  0  0  0  0  0  0  0  0  0  0  0
   13.6726   37.4633   31.2239 H   0  0  0  0  0  0  0  0  0  0  0  0
   10.0535   38.1084   29.7638 H   0  0  0  0  0  0  0  0  0  0  0  0
   11.2645   36.3134   32.5107 H   0  0  0  0  0  0  0  0  0  0  0  0
   12.1548   35.5031   30.6315 H   0  0  0  0  0  0  0  0  0  0  0  0
   12.3362   38.3586   34.7449 H   0  0  0  0  0  0  0  0  0  0  0  0
   16.7574   34.1788   32.4619 H   0  0  0  0  0  0  0  0  0  0  0  0
   15.3533   35.7353   37.5139 H   0  0  0  0  0  0  0  0  0  0  0  0
   16.6366   34.5314   37.1415 H   0  0  0  0  0  0  0  0  0  0  0  0
  1  2  2  0
  1  3  1  0
  3  4  1  0
  4  5  1  0
  6  1  1  0
  7  6  1  0
  6  8  1  0
  8  9  1  0
  9 10  1  0
  9 11  2  0
 10 12  1  0
 12 13  1  0
 13 14  2  0
 15 13  1  0
 14 16  1  0
 14 17  1  0
 18 15  2  0
 16 19  1  0
 16 20  2  0
 17 21  2  0
 21 18  1  0
  4 22  2  0
  4 23  1  0
 24 23  1  0
 24 25  1  0
 25 26  1  0
 25 27  1  0
 26 28  1  0
 27 29  1  0
 27 30  1  0
 30 28  1  0
 28 31  1  0
 30 32  1  0
 33 31  1  0
 34 31  1  0
 35 33  2  0
 33 36  1  0
 37 34  2  0
 38 35  1  0
 36 39  2  0
 36 37  1  0
 40 38  2  0
 40 39  1  0
 39 41  1  0
  6 42  1  6
  7 43  1  0
  7 44  1  0
  8 45  1  0
  8 46  1  0
 12 47  1  0
 12 48  1  0
 15 49  1  0
 17 50  1  0
 18 51  1  0
 21 52  1  0
 24 53  1  0
 24 54  1  0
 25 55  1  0
 27 56  1  0
 28 57  1  0
 29 58  1  0
 30 59  1  0
 32 60  1  0
 34 61  1  0
 38 62  1  0
 41 63  1  0
 41 64  1  0
M  CHG  3   5  -1  16   1  19  -1
M  END
>  <EmbedRMS>  (224) 
0.08867286760871143

$$$$

     RDKit          3D

 64 67  0  0  0  0  0  0  0  0999 V2000
   10.2819   43.7760   33.8092 C   0  0  0  0  0  0  0  0  0  0  0  0
   11.4050   43.5928   34.3651 O   0  0  0  0  0  0  0  0  0  0  0  0
    9.3747   42.7268   33.6896 O   0  0  0  0  0  0  0  0  0  0  0  0
    9.8870   41.2329   34.2833 P   0  0  0  0  0  5  0  0  0  0  0  0
   10.3635   41.4720   35.8745 O   0  0  0  0  0  1  0  0  0  0  0  0
    9.9387   45.1276   33.2741 C   0  0  2  0  0  0  0  0  0  0  0  0
   11.0822   46.0225   33.4598 N   0  0  0  0  0  0  0  0  0  0  0  0
    8.7089   45.7152   34.0015 C   0  0  0  0  0  0  0  0  0  0  0  0
    7.4482   44.9776   33.6673 C   0  0  0  0  0  0  0  0  0  0  0  0
    7.0422   43.9171   34.4809 O   0  0  0  0  0  0  0  0  0  0  0  0
    6.7956   45.2830   32.6321 O   0  0  0  0  0  0  0  0  0  0  0  0
    5.9529   43.0580   34.1562 C   0  0  0  0  0  0  0  0  0  0  0  0
    5.9464   41.8408   35.0543 C   0  0  0  0  0  0  0  0  0  0  0  0
    5.3967   40.6032   34.6228 C   0  0  0  0  0  0  0  0  0  0  0  0
    6.4994   41.9275   36.3480 C   0  0  0  0  0  0  0  0  0  0  0  0
    4.7349   40.4673   33.3530 N   0  0  0  0  0  4  0  0  0  0  0  0
    5.4975   39.4776   35.4590 C   0  0  0  0  0  0  0  0  0  0  0  0
    6.5730   40.8017   37.1689 C   0  0  0  0  0  0  0  0  0  0  0  0
    4.7743   39.2661   32.6830 O   0  0  0  0  0  1  0  0  0  0  0  0
    3.9671   41.3607   32.9402 O   0  0  0  0  0  0  0  0  0  0  0  0
    6.0842   39.5768   36.7208 C   0  0  0  0  0  0  0  0  0  0  0  0
    8.8086   40.1910   34.2073 O   0  0  0  0  0  0  0  0  0  0  0  0
   11.2384   40.7870   33.3698 O   0  0  0  0  0  0  0  0  0  0  0  0
   10.9170   40.6890   31.9965 C   0  0  0  0  0  0  0  0  0  0  0  0
   11.5273   39.3895   31.4370 C   0  0  0  0  0  0  0  0  0  0  0  0
   12.7512   39.0911   32.0831 O   0  0  0  0  0  0  0  0  0  0  0  0
   10.6122   38.1916   31.6453 C   0  0  0  0  0  0  0  0  0  0  0  0
   12.9429   37.6848   32.0293 C   0  0  0  0  0  0  0  0  0  0  0  0
    9.6067   38.0859   30.6606 O   0  0  0  0  0  0  0  0  0  0  0  0
   11.5843   37.0184   31.6880 C   0  0  0  0  0  0  0  0  0  0  0  0
   13.4898   37.2162   33.3249 N   0  0  0  0  0  0  0  0  0  0  0  0
   11.6198   36.3061   30.4693 O   0  0  0  0  0  0  0  0  0  0  0  0
   14.4758   36.3263   33.5739 C   0  0  0  0  0  0  0  0  0  0  0  0
   13.1174   37.6307   34.5698 C   0  0  0  0  0  0  0  0  0  0  0  0
   15.2065   35.6138   32.6746 N   0  0  0  0  0  0  0  0  0  0  0  0
   14.6731   36.2268   34.9191 C   0  0  0  0  0  0  0  0  0  0  0  0
   13.8223   37.0450   35.5792 N   0  0  0  0  0  0  0  0  0  0  0  0
   16.1640   34.7596   33.1551 C   0  0  0  0  0  0  0  0  0  0  0  0
   15.6517   35.3489   35.4136 C   0  0  0  0  0  0  0  0  0  0  0  0
   16.3795   34.6310   34.5046 N   0  0  0  0  0  0  0  0  0  0  0  0
   15.9006   35.1931   36.8094 N   0  0  0  0  0  0  0  0  0  0  0  0
    9.7178   45.0373   32.1860 H   0  0  0  0  0  0  0  0  0  0  0  0
   11.8728   45.6755   32.8677 H   0  0  0  0  0  0  0  0  0  0  0  0
   10.8380   46.9611   33.0675 H   0  0  0  0  0  0  0  0  0  0  0  0
    8.5743   46.7798   33.7104 H   0  0  0  0  0  0  0  0  0  0  0  0
    8.8709   45.6916   35.1016 H   0  0  0  0  0  0  0  0  0  0  0  0
    6.0689   42.7377   33.0983 H   0  0  0  0  0  0  0  0  0  0  0  0
    4.9964   43.6106   34.2719 H   0  0  0  0  0  0  0  0  0  0  0  0
    6.8936   42.8640   36.7218 H   0  0  0  0  0  0  0  0  0  0  0  0
    5.0978   38.5227   35.1422 H   0  0  0  0  0  0  0  0  0  0  0  0
    7.0155   40.8788   38.1537 H   0  0  0  0  0  0  0  0  0  0  0  0
    6.1467   38.7043   37.3583 H   0  0  0  0  0  0  0  0  0  0  0  0
   11.3849   41.5521   31.4764 H   0  0  0  0  0  0  0  0  0  0  0  0
    9.8269   40.7192   31.7586 H   0  0  0  0  0  0  0  0  0  0  0  0
   11.7317   39.5337   30.3516 H   0  0  0  0  0  0  0  0  0  0  0  0
   10.1215   38.2684   32.6414 H   0  0  0  0  0  0  0  0  0  0  0  0
   13.6881   37.4697   31.2318 H   0  0  0  0  0  0  0  0  0  0  0  0
   10.0252   38.1752   29.7658 H   0  0  0  0  0  0  0  0  0  0  0  0
   11.2793   36.3122   32.4916 H   0  0  0  0  0  0  0  0  0  0  0  0
   11.9866   36.9098   29.7714 H   0  0  0  0  0  0  0  0  0  0  0  0
   12.3363   38.3594   34.7452 H   0  0  0  0  0  0  0  0  0  0  0  0
   16.7577   34.1794   32.4623 H   0  0  0  0  0  0  0  0  0  0  0  0
   15.3532   35.7351   37.5144 H   0  0  0  0  0  0  0  0  0  0  0  0
   16.6368   34.5316   37.1418 H   0  0  0  0  0  0  0  0  0  0  0  0
  1  2  2  0
  1  3  1  0
  3  4  1  0
  4  5  1  0
  6  1  1  0
  7  6  1  0
  6  8  1  0
  8  9  1  0
  9 10  1  0
  9 11  2  0
 10 12  1  0
 12 13  1  0
 13 14  2  0
 15 13  1  0
 14 16  1  0
 14 17  1  0
 18 15  2  0
 16 19  1  0
 16 20  2  0
 17 21  2  0
 21 18  1  0
  4 22  2  0
  4 23  1  0
 24 23  1  0
 24 25  1  0
 25 26  1  0
 25 27  1  0
 26 28  1  0
 27 29  1  0
 27 30  1  0
 30 28  1  0
 28 31  1  0
 30 32  1  0
 33 31  1  0
 34 31  1  0
 35 33  2  0
 33 36  1  0
 37 34  2  0
 38 35  1  0
 36 39  2  0
 36 37  1  0
 40 38  2  0
 40 39  1  0
 39 41  1  0
  6 42  1  6
  7 43  1  0
  7 44  1  0
  8 45  1  0
  8 46  1  0
 12 47  1  0
 12 48  1  0
 15 49  1  0
 17 50  1  0
 18 51  1  0
 21 52  1  0
 24 53  1  0
 24 54  1  0
 25 55  1  0
 27 56  1  0
 28 57  1  0
 29 58  1  0
 30 59  1  0
 32 60  1  0
 34 61  1  0
 38 62  1  0
 41 63  1  0
 41 64  1  0
M  CHG  3   5  -1  16   1  19  -1
M  END
>  <EmbedRMS>  (225) 
0.08818395757056414

$$$$

     RDKit          3D

 64 67  0  0  0  0  0  0  0  0999 V2000
   10.2856   43.7717   33.8031 C   0  0  0  0  0  0  0  0  0  0  0  0
   11.4073   43.5882   34.3611 O   0  0  0  0  0  0  0  0  0  0  0  0
    9.3664   42.7310   33.6997 O   0  0  0  0  0  0  0  0  0  0  0  0
    9.8852   41.2344   34.2848 P   0  0  0  0  0  5  0  0  0  0  0  0
   10.3680   41.4701   35.8746 O   0  0  0  0  0  1  0  0  0  0  0  0
    9.9562   45.1140   33.2459 C   0  0  2  0  0  0  0  0  0  0  0  0
   11.0694   46.0348   33.4837 N   0  0  0  0  0  0  0  0  0  0  0  0
    8.6520   45.6664   33.8575 C   0  0  0  0  0  0  0  0  0  0  0  0
    8.7206   45.7690   35.3520 C   0  0  0  0  0  0  0  0  0  0  0  0
    8.1951   44.7352   36.1311 O   0  0  0  0  0  0  0  0  0  0  0  0
    9.2834   46.7610   35.8908 O   0  0  0  0  0  0  0  0  0  0  0  0
    8.3335   44.6876   37.5485 C   0  0  0  0  0  0  0  0  0  0  0  0
    7.6570   43.4642   38.1272 C   0  0  0  0  0  0  0  0  0  0  0  0
    7.2849   43.4089   39.4973 C   0  0  0  0  0  0  0  0  0  0  0  0
    7.4052   42.3455   37.3064 C   0  0  0  0  0  0  0  0  0  0  0  0
    7.5780   44.4869   40.4048 N   0  0  0  0  0  4  0  0  0  0  0  0
    6.6171   42.2696   39.9832 C   0  0  0  0  0  0  0  0  0  0  0  0
    6.7589   41.2181   37.8139 C   0  0  0  0  0  0  0  0  0  0  0  0
    8.7873   45.1403   40.3469 O   0  0  0  0  0  1  0  0  0  0  0  0
    6.8139   44.7234   41.3634 O   0  0  0  0  0  0  0  0  0  0  0  0
    6.3575   41.1837   39.1470 C   0  0  0  0  0  0  0  0  0  0  0  0
    8.8076   40.1914   34.2104 O   0  0  0  0  0  0  0  0  0  0  0  0
   11.2366   40.7902   33.3688 O   0  0  0  0  0  0  0  0  0  0  0  0
   10.9150   40.6896   31.9959 C   0  0  0  0  0  0  0  0  0  0  0  0
   11.5268   39.3898   31.4374 C   0  0  0  0  0  0  0  0  0  0  0  0
   12.7506   39.0917   32.0839 O   0  0  0  0  0  0  0  0  0  0  0  0
   10.6121   38.1915   31.6452 C   0  0  0  0  0  0  0  0  0  0  0  0
   12.9428   37.6853   32.0295 C   0  0  0  0  0  0  0  0  0  0  0  0
    9.6069   38.0857   30.6603 O   0  0  0  0  0  0  0  0  0  0  0  0
   11.5845   37.0186   31.6879 C   0  0  0  0  0  0  0  0  0  0  0  0
   13.4898   37.2164   33.3250 N   0  0  0  0  0  0  0  0  0  0  0  0
   11.6202   36.3063   30.4692 O   0  0  0  0  0  0  0  0  0  0  0  0
   14.4758   36.3264   33.5739 C   0  0  0  0  0  0  0  0  0  0  0  0
   13.1175   37.6308   34.5699 C   0  0  0  0  0  0  0  0  0  0  0  0
   15.2065   35.6139   32.6746 N   0  0  0  0  0  0  0  0  0  0  0  0
   14.6731   36.2268   34.9191 C   0  0  0  0  0  0  0  0  0  0  0  0
   13.8224   37.0450   35.5792 N   0  0  0  0  0  0  0  0  0  0  0  0
   16.1640   34.7596   33.1551 C   0  0  0  0  0  0  0  0  0  0  0  0
   15.6517   35.3489   35.4136 C   0  0  0  0  0  0  0  0  0  0  0  0
   16.3795   34.6310   34.5046 N   0  0  0  0  0  0  0  0  0  0  0  0
   15.9006   35.1931   36.8094 N   0  0  0  0  0  0  0  0  0  0  0  0
    9.8046   45.0032   32.1485 H   0  0  0  0  0  0  0  0  0  0  0  0
   10.8139   46.9715   33.0941 H   0  0  0  0  0  0  0  0  0  0  0  0
   11.8906   45.7134   32.9197 H   0  0  0  0  0  0  0  0  0  0  0  0
    8.4328   46.6689   33.4302 H   0  0  0  0  0  0  0  0  0  0  0  0
    7.8034   45.0046   33.5782 H   0  0  0  0  0  0  0  0  0  0  0  0
    9.4135   44.6581   37.8085 H   0  0  0  0  0  0  0  0  0  0  0  0
    7.8749   45.6056   37.9758 H   0  0  0  0  0  0  0  0  0  0  0  0
    7.6965   42.3418   36.2648 H   0  0  0  0  0  0  0  0  0  0  0  0
    6.3176   42.2121   41.0221 H   0  0  0  0  0  0  0  0  0  0  0  0
    6.5656   40.3702   37.1694 H   0  0  0  0  0  0  0  0  0  0  0  0
    5.8532   40.3090   39.5370 H   0  0  0  0  0  0  0  0  0  0  0  0
    9.8248   40.7186   31.7590 H   0  0  0  0  0  0  0  0  0  0  0  0
   11.3817   41.5526   31.4745 H   0  0  0  0  0  0  0  0  0  0  0  0
   11.7316   39.5338   30.3520 H   0  0  0  0  0  0  0  0  0  0  0  0
   10.1214   38.2681   32.6413 H   0  0  0  0  0  0  0  0  0  0  0  0
   13.6882   37.4709   31.2319 H   0  0  0  0  0  0  0  0  0  0  0  0
   10.0255   38.1750   29.7657 H   0  0  0  0  0  0  0  0  0  0  0  0
   11.2796   36.3123   32.4915 H   0  0  0  0  0  0  0  0  0  0  0  0
   11.9872   36.9100   29.7715 H   0  0  0  0  0  0  0  0  0  0  0  0
   12.3364   38.3595   34.7454 H   0  0  0  0  0  0  0  0  0  0  0  0
   16.7576   34.1794   32.4622 H   0  0  0  0  0  0  0  0  0  0  0  0
   15.3532   35.7351   37.5143 H   0  0  0  0  0  0  0  0  0  0  0  0
   16.6368   34.5316   37.1418 H   0  0  0  0  0  0  0  0  0  0  0  0
  1  2  2  0
  1  3  1  0
  3  4  1  0
  4  5  1  0
  6  1  1  0
  7  6  1  0
  6  8  1  0
  8  9  1  0
  9 10  1  0
  9 11  2  0
 10 12  1  0
 12 13  1  0
 13 14  2  0
 15 13  1  0
 14 16  1  0
 14 17  1  0
 18 15  2  0
 16 19  1  0
 16 20  2  0
 17 21  2  0
 21 18  1  0
  4 22  2  0
  4 23  1  0
 24 23  1  0
 24 25  1  0
 25 26  1  0
 25 27  1  0
 26 28  1  0
 27 29  1  0
 27 30  1  0
 30 28  1  0
 28 31  1  0
 30 32  1  0
 33 31  1  0
 34 31  1  0
 35 33  2  0
 33 36  1  0
 37 34  2  0
 38 35  1  0
 36 39  2  0
 36 37  1  0
 40 38  2  0
 40 39  1  0
 39 41  1  0
  6 42  1  6
  7 43  1  0
  7 44  1  0
  8 45  1  0
  8 46  1  0
 12 47  1  0
 12 48  1  0
 15 49  1  0
 17 50  1  0
 18 51  1  0
 21 52  1  0
 24 53  1  0
 24 54  1  0
 25 55  1  0
 27 56  1  0
 28 57  1  0
 29 58  1  0
 30 59  1  0
 32 60  1  0
 34 61  1  0
 38 62  1  0
 41 63  1  0
 41 64  1  0
M  CHG  3   5  -1  16   1  19  -1
M  END
>  <EmbedRMS>  (226) 
0.08685551310157506

$$$$

     RDKit          3D

 64 67  0  0  0  0  0  0  0  0999 V2000
   10.2789   43.7766   33.8128 C   0  0  0  0  0  0  0  0  0  0  0  0
   11.4025   43.5925   34.3673 O   0  0  0  0  0  0  0  0  0  0  0  0
    9.3685   42.7294   33.6985 O   0  0  0  0  0  0  0  0  0  0  0  0
    9.8873   41.2332   34.2828 P   0  0  0  0  0  5  0  0  0  0  0  0
   10.3661   41.4687   35.8738 O   0  0  0  0  0  1  0  0  0  0  0  0
    9.9446   45.1234   33.2619 C   0  0  2  0  0  0  0  0  0  0  0  0
   11.0839   46.0210   33.4615 N   0  0  0  0  0  0  0  0  0  0  0  0
    8.7008   45.7199   33.9600 C   0  0  0  0  0  0  0  0  0  0  0  0
    7.4282   44.9682   33.6927 C   0  0  0  0  0  0  0  0  0  0  0  0
    6.4200   44.9803   34.6647 O   0  0  0  0  0  0  0  0  0  0  0  0
    7.2430   44.3988   32.5817 O   0  0  0  0  0  0  0  0  0  0  0  0
    5.2122   44.2247   34.5591 C   0  0  0  0  0  0  0  0  0  0  0  0
    5.3228   42.8521   35.1979 C   0  0  0  0  0  0  0  0  0  0  0  0
    4.1831   42.0056   35.3095 C   0  0  0  0  0  0  0  0  0  0  0  0
    6.5447   42.4214   35.7589 C   0  0  0  0  0  0  0  0  0  0  0  0
    2.8926   42.3854   34.7953 N   0  0  0  0  0  4  0  0  0  0  0  0
    4.3042   40.7720   35.9737 C   0  0  0  0  0  0  0  0  0  0  0  0
    6.6404   41.1897   36.4067 C   0  0  0  0  0  0  0  0  0  0  0  0
    1.7492   41.9388   35.4173 O   0  0  0  0  0  1  0  0  0  0  0  0
    2.7862   42.9700   33.6983 O   0  0  0  0  0  0  0  0  0  0  0  0
    5.5241   40.3659   36.5118 C   0  0  0  0  0  0  0  0  0  0  0  0
    8.8107   40.1896   34.2051 O   0  0  0  0  0  0  0  0  0  0  0  0
   11.2388   40.7918   33.3662 O   0  0  0  0  0  0  0  0  0  0  0  0
   10.9144   40.6862   31.9939 C   0  0  0  0  0  0  0  0  0  0  0  0
   11.5172   39.3796   31.4406 C   0  0  0  0  0  0  0  0  0  0  0  0
   12.7489   39.0884   32.0760 O   0  0  0  0  0  0  0  0  0  0  0  0
   10.6051   38.1878   31.6660 C   0  0  0  0  0  0  0  0  0  0  0  0
   12.9411   37.6827   32.0278 C   0  0  0  0  0  0  0  0  0  0  0  0
    9.6357   38.0932   30.6504 O   0  0  0  0  0  0  0  0  0  0  0  0
   11.5826   37.0179   31.6937 C   0  0  0  0  0  0  0  0  0  0  0  0
   13.4908   37.2176   33.3239 N   0  0  0  0  0  0  0  0  0  0  0  0
   11.6139   36.3180   30.4676 O   0  0  0  0  0  0  0  0  0  0  0  0
   14.4762   36.3270   33.5733 C   0  0  0  0  0  0  0  0  0  0  0  0
   13.1178   37.6316   34.5689 C   0  0  0  0  0  0  0  0  0  0  0  0
   15.2067   35.6140   32.6744 N   0  0  0  0  0  0  0  0  0  0  0  0
   14.6731   36.2273   34.9186 C   0  0  0  0  0  0  0  0  0  0  0  0
   13.8223   37.0456   35.5785 N   0  0  0  0  0  0  0  0  0  0  0  0
   16.1639   34.7595   33.1551 C   0  0  0  0  0  0  0  0  0  0  0  0
   15.6515   35.3491   35.4134 C   0  0  0  0  0  0  0  0  0  0  0  0
   16.3792   34.6310   34.5046 N   0  0  0  0  0  0  0  0  0  0  0  0
   15.9002   35.1933   36.8093 N   0  0  0  0  0  0  0  0  0  0  0  0
    9.7484   45.0249   32.1702 H   0  0  0  0  0  0  0  0  0  0  0  0
   11.8838   45.6740   32.8820 H   0  0  0  0  0  0  0  0  0  0  0  0
   10.8437   46.9583   33.0637 H   0  0  0  0  0  0  0  0  0  0  0  0
    8.5469   46.7632   33.6102 H   0  0  0  0  0  0  0  0  0  0  0  0
    8.8764   45.7584   35.0576 H   0  0  0  0  0  0  0  0  0  0  0  0
    4.4126   44.7892   35.0834 H   0  0  0  0  0  0  0  0  0  0  0  0
    4.9202   44.1326   33.4921 H   0  0  0  0  0  0  0  0  0  0  0  0
    7.4318   43.0378   35.7184 H   0  0  0  0  0  0  0  0  0  0  0  0
    3.4488   40.1150   36.0677 H   0  0  0  0  0  0  0  0  0  0  0  0
    7.5837   40.8758   36.8348 H   0  0  0  0  0  0  0  0  0  0  0  0
    5.6023   39.4115   37.0163 H   0  0  0  0  0  0  0  0  0  0  0  0
    9.8242   40.7215   31.7577 H   0  0  0  0  0  0  0  0  0  0  0  0
   11.3862   41.5432   31.4673 H   0  0  0  0  0  0  0  0  0  0  0  0
   11.6997   39.5061   30.3484 H   0  0  0  0  0  0  0  0  0  0  0  0
   10.1122   38.2726   32.6633 H   0  0  0  0  0  0  0  0  0  0  0  0
   13.6816   37.4629   31.2269 H   0  0  0  0  0  0  0  0  0  0  0  0
    9.0030   37.3837   30.9357 H   0  0  0  0  0  0  0  0  0  0  0  0
   11.2844   36.3041   32.4929 H   0  0  0  0  0  0  0  0  0  0  0  0
   11.8847   36.9590   29.7589 H   0  0  0  0  0  0  0  0  0  0  0  0
   12.3362   38.3598   34.7441 H   0  0  0  0  0  0  0  0  0  0  0  0
   16.7574   34.1791   32.4623 H   0  0  0  0  0  0  0  0  0  0  0  0
   16.6363   34.5317   37.1418 H   0  0  0  0  0  0  0  0  0  0  0  0
   15.3529   35.7356   37.5141 H   0  0  0  0  0  0  0  0  0  0  0  0
  1  2  2  0
  1  3  1  0
  3  4  1  0
  4  5  1  0
  6  1  1  0
  7  6  1  0
  6  8  1  0
  8  9  1  0
  9 10  1  0
  9 11  2  0
 10 12  1  0
 12 13  1  0
 13 14  2  0
 15 13  1  0
 14 16  1  0
 14 17  1  0
 18 15  2  0
 16 19  1  0
 16 20  2  0
 17 21  2  0
 21 18  1  0
  4 22  2  0
  4 23  1  0
 24 23  1  0
 24 25  1  0
 25 26  1  0
 25 27  1  0
 26 28  1  0
 27 29  1  0
 27 30  1  0
 30 28  1  0
 28 31  1  0
 30 32  1  0
 33 31  1  0
 34 31  1  0
 35 33  2  0
 33 36  1  0
 37 34  2  0
 38 35  1  0
 36 39  2  0
 36 37  1  0
 40 38  2  0
 40 39  1  0
 39 41  1  0
  6 42  1  6
  7 43  1  0
  7 44  1  0
  8 45  1  0
  8 46  1  0
 12 47  1  0
 12 48  1  0
 15 49  1  0
 17 50  1  0
 18 51  1  0
 21 52  1  0
 24 53  1  0
 24 54  1  0
 25 55  1  0
 27 56  1  0
 28 57  1  0
 29 58  1  0
 30 59  1  0
 32 60  1  0
 34 61  1  0
 38 62  1  0
 41 63  1  0
 41 64  1  0
M  CHG  3   5  -1  16   1  19  -1
M  END
>  <EmbedRMS>  (227) 
0.08834370279973928

$$$$

     RDKit          3D

 64 67  0  0  0  0  0  0  0  0999 V2000
   10.2861   43.7711   33.8099 C   0  0  0  0  0  0  0  0  0  0  0  0
   11.4100   43.5818   34.3615 O   0  0  0  0  0  0  0  0  0  0  0  0
    9.3666   42.7310   33.7021 O   0  0  0  0  0  0  0  0  0  0  0  0
    9.8843   41.2332   34.2846 P   0  0  0  0  0  5  0  0  0  0  0  0
   10.3652   41.4679   35.8751 O   0  0  0  0  0  1  0  0  0  0  0  0
    9.9605   45.1127   33.2475 C   0  0  2  0  0  0  0  0  0  0  0  0
   11.0657   46.0476   33.4748 N   0  0  0  0  0  0  0  0  0  0  0  0
    8.6653   45.6574   33.8727 C   0  0  0  0  0  0  0  0  0  0  0  0
    8.2719   46.9614   33.2509 C   0  0  0  0  0  0  0  0  0  0  0  0
    8.7251   48.1568   33.8155 O   0  0  0  0  0  0  0  0  0  0  0  0
    7.5682   46.9697   32.2040 O   0  0  0  0  0  0  0  0  0  0  0  0
    8.4000   49.4333   33.2759 C   0  0  0  0  0  0  0  0  0  0  0  0
    9.0582   50.5076   34.1015 C   0  0  0  0  0  0  0  0  0  0  0  0
   10.3929   50.9367   33.8668 C   0  0  0  0  0  0  0  0  0  0  0  0
    8.3204   51.0956   35.1447 C   0  0  0  0  0  0  0  0  0  0  0  0
   11.2205   50.3409   32.8511 N   0  0  0  0  0  4  0  0  0  0  0  0
   10.9215   51.9812   34.6463 C   0  0  0  0  0  0  0  0  0  0  0  0
    8.8710   52.1185   35.9177 C   0  0  0  0  0  0  0  0  0  0  0  0
   12.1992   51.0886   32.2374 O   0  0  0  0  0  1  0  0  0  0  0  0
   11.1874   49.1110   32.6425 O   0  0  0  0  0  0  0  0  0  0  0  0
   10.1661   52.5656   35.6640 C   0  0  0  0  0  0  0  0  0  0  0  0
    8.8069   40.1904   34.2083 O   0  0  0  0  0  0  0  0  0  0  0  0
   11.2364   40.7902   33.3689 O   0  0  0  0  0  0  0  0  0  0  0  0
   10.9152   40.6897   31.9959 C   0  0  0  0  0  0  0  0  0  0  0  0
   11.5269   39.3898   31.4373 C   0  0  0  0  0  0  0  0  0  0  0  0
   12.7507   39.0916   32.0839 O   0  0  0  0  0  0  0  0  0  0  0  0
   10.6121   38.1915   31.6452 C   0  0  0  0  0  0  0  0  0  0  0  0
   12.9429   37.6853   32.0295 C   0  0  0  0  0  0  0  0  0  0  0  0
    9.6069   38.0857   30.6602 O   0  0  0  0  0  0  0  0  0  0  0  0
   11.5845   37.0186   31.6879 C   0  0  0  0  0  0  0  0  0  0  0  0
   13.4899   37.2163   33.3250 N   0  0  0  0  0  0  0  0  0  0  0  0
   11.6202   36.3062   30.4692 O   0  0  0  0  0  0  0  0  0  0  0  0
   14.4759   36.3263   33.5738 C   0  0  0  0  0  0  0  0  0  0  0  0
   13.1175   37.6307   34.5699 C   0  0  0  0  0  0  0  0  0  0  0  0
   15.2065   35.6139   32.6746 N   0  0  0  0  0  0  0  0  0  0  0  0
   14.6731   36.2267   34.9191 C   0  0  0  0  0  0  0  0  0  0  0  0
   13.8224   37.0450   35.5792 N   0  0  0  0  0  0  0  0  0  0  0  0
   16.1640   34.7596   33.1551 C   0  0  0  0  0  0  0  0  0  0  0  0
   15.6517   35.3489   35.4136 C   0  0  0  0  0  0  0  0  0  0  0  0
   16.3795   34.6310   34.5046 N   0  0  0  0  0  0  0  0  0  0  0  0
   15.9006   35.1931   36.8094 N   0  0  0  0  0  0  0  0  0  0  0  0
    9.8089   44.9959   32.1513 H   0  0  0  0  0  0  0  0  0  0  0  0
   11.2752   46.1195   34.4980 H   0  0  0  0  0  0  0  0  0  0  0  0
   11.9221   45.7019   32.9826 H   0  0  0  0  0  0  0  0  0  0  0  0
    8.8007   45.7996   34.9673 H   0  0  0  0  0  0  0  0  0  0  0  0
    7.8374   44.9291   33.7263 H   0  0  0  0  0  0  0  0  0  0  0  0
    7.2954   49.5643   33.2808 H   0  0  0  0  0  0  0  0  0  0  0  0
    8.7277   49.5004   32.2164 H   0  0  0  0  0  0  0  0  0  0  0  0
    7.3093   50.7682   35.3545 H   0  0  0  0  0  0  0  0  0  0  0  0
   11.9325   52.3309   34.4803 H   0  0  0  0  0  0  0  0  0  0  0  0
    8.2901   52.5682   36.7126 H   0  0  0  0  0  0  0  0  0  0  0  0
   10.5897   53.3616   36.2628 H   0  0  0  0  0  0  0  0  0  0  0  0
   11.3823   41.5526   31.4747 H   0  0  0  0  0  0  0  0  0  0  0  0
    9.8252   40.7190   31.7585 H   0  0  0  0  0  0  0  0  0  0  0  0
   11.7317   39.5338   30.3520 H   0  0  0  0  0  0  0  0  0  0  0  0
   10.1214   38.2681   32.6412 H   0  0  0  0  0  0  0  0  0  0  0  0
   13.6882   37.4709   31.2319 H   0  0  0  0  0  0  0  0  0  0  0  0
   10.0256   38.1750   29.7656 H   0  0  0  0  0  0  0  0  0  0  0  0
   11.2796   36.3123   32.4915 H   0  0  0  0  0  0  0  0  0  0  0  0
   11.9872   36.9099   29.7714 H   0  0  0  0  0  0  0  0  0  0  0  0
   12.3365   38.3595   34.7453 H   0  0  0  0  0  0  0  0  0  0  0  0
   16.7576   34.1794   32.4622 H   0  0  0  0  0  0  0  0  0  0  0  0
   16.6368   34.5316   37.1418 H   0  0  0  0  0  0  0  0  0  0  0  0
   15.3532   35.7351   37.5143 H   0  0  0  0  0  0  0  0  0  0  0  0
  1  2  2  0
  1  3  1  0
  3  4  1  0
  4  5  1  0
  6  1  1  0
  7  6  1  0
  6  8  1  0
  8  9  1  0
  9 10  1  0
  9 11  2  0
 10 12  1  0
 12 13  1  0
 13 14  2  0
 15 13  1  0
 14 16  1  0
 14 17  1  0
 18 15  2  0
 16 19  1  0
 16 20  2  0
 17 21  2  0
 21 18  1  0
  4 22  2  0
  4 23  1  0
 24 23  1  0
 24 25  1  0
 25 26  1  0
 25 27  1  0
 26 28  1  0
 27 29  1  0
 27 30  1  0
 30 28  1  0
 28 31  1  0
 30 32  1  0
 33 31  1  0
 34 31  1  0
 35 33  2  0
 33 36  1  0
 37 34  2  0
 38 35  1  0
 36 39  2  0
 36 37  1  0
 40 38  2  0
 40 39  1  0
 39 41  1  0
  6 42  1  6
  7 43  1  0
  7 44  1  0
  8 45  1  0
  8 46  1  0
 12 47  1  0
 12 48  1  0
 15 49  1  0
 17 50  1  0
 18 51  1  0
 21 52  1  0
 24 53  1  0
 24 54  1  0
 25 55  1  0
 27 56  1  0
 28 57  1  0
 29 58  1  0
 30 59  1  0
 32 60  1  0
 34 61  1  0
 38 62  1  0
 41 63  1  0
 41 64  1  0
M  CHG  3   5  -1  16   1  19  -1
M  END
>  <EmbedRMS>  (228) 
0.08751066379588913

$$$$

     RDKit          3D

 64 67  0  0  0  0  0  0  0  0999 V2000
   10.2860   43.7721   33.8047 C   0  0  0  0  0  0  0  0  0  0  0  0
   11.4085   43.5885   34.3610 O   0  0  0  0  0  0  0  0  0  0  0  0
    9.3673   42.7311   33.6995 O   0  0  0  0  0  0  0  0  0  0  0  0
    9.8853   41.2343   34.2839 P   0  0  0  0  0  5  0  0  0  0  0  0
   10.3661   41.4700   35.8743 O   0  0  0  0  0  1  0  0  0  0  0  0
    9.9530   45.1148   33.2532 C   0  0  2  0  0  0  0  0  0  0  0  0
   11.0712   46.0334   33.4767 N   0  0  0  0  0  0  0  0  0  0  0  0
    8.6601   45.6659   33.8881 C   0  0  0  0  0  0  0  0  0  0  0  0
    8.7927   45.8673   35.3684 C   0  0  0  0  0  0  0  0  0  0  0  0
    9.3479   47.0564   35.8545 O   0  0  0  0  0  0  0  0  0  0  0  0
    8.4347   44.9524   36.1599 O   0  0  0  0  0  0  0  0  0  0  0  0
    9.5218   47.3244   37.2458 C   0  0  0  0  0  0  0  0  0  0  0  0
    8.1952   47.5511   37.9399 C   0  0  0  0  0  0  0  0  0  0  0  0
    7.9840   47.1678   39.2902 C   0  0  0  0  0  0  0  0  0  0  0  0
    7.1492   48.1789   37.2360 C   0  0  0  0  0  0  0  0  0  0  0  0
    9.0457   46.6283   40.0955 N   0  0  0  0  0  4  0  0  0  0  0  0
    6.7109   47.3401   39.8629 C   0  0  0  0  0  0  0  0  0  0  0  0
    5.8985   48.3584   37.8284 C   0  0  0  0  0  0  0  0  0  0  0  0
   10.2944   47.2057   40.0721 O   0  0  0  0  0  1  0  0  0  0  0  0
    8.7960   45.7699   40.9670 O   0  0  0  0  0  0  0  0  0  0  0  0
    5.6761   47.9286   39.1350 C   0  0  0  0  0  0  0  0  0  0  0  0
    8.8077   40.1915   34.2086 O   0  0  0  0  0  0  0  0  0  0  0  0
   11.2368   40.7908   33.3672 O   0  0  0  0  0  0  0  0  0  0  0  0
   10.9136   40.6860   31.9946 C   0  0  0  0  0  0  0  0  0  0  0  0
   11.5170   39.3797   31.4409 C   0  0  0  0  0  0  0  0  0  0  0  0
   12.7488   39.0886   32.0762 O   0  0  0  0  0  0  0  0  0  0  0  0
   10.6051   38.1876   31.6659 C   0  0  0  0  0  0  0  0  0  0  0  0
   12.9412   37.6828   32.0278 C   0  0  0  0  0  0  0  0  0  0  0  0
    9.6358   38.0930   30.6503 O   0  0  0  0  0  0  0  0  0  0  0  0
   11.5827   37.0179   31.6936 C   0  0  0  0  0  0  0  0  0  0  0  0
   13.4909   37.2176   33.3239 N   0  0  0  0  0  0  0  0  0  0  0  0
   11.6140   36.3180   30.4675 O   0  0  0  0  0  0  0  0  0  0  0  0
   14.4762   36.3270   33.5733 C   0  0  0  0  0  0  0  0  0  0  0  0
   13.1179   37.6316   34.5689 C   0  0  0  0  0  0  0  0  0  0  0  0
   15.2067   35.6140   32.6743 N   0  0  0  0  0  0  0  0  0  0  0  0
   14.6731   36.2272   34.9186 C   0  0  0  0  0  0  0  0  0  0  0  0
   13.8223   37.0456   35.5785 N   0  0  0  0  0  0  0  0  0  0  0  0
   16.1639   34.7595   33.1551 C   0  0  0  0  0  0  0  0  0  0  0  0
   15.6515   35.3491   35.4134 C   0  0  0  0  0  0  0  0  0  0  0  0
   16.3793   34.6310   34.5045 N   0  0  0  0  0  0  0  0  0  0  0  0
   15.9002   35.1933   36.8093 N   0  0  0  0  0  0  0  0  0  0  0  0
    9.7838   45.0051   32.1584 H   0  0  0  0  0  0  0  0  0  0  0  0
   11.8828   45.7126   32.8988 H   0  0  0  0  0  0  0  0  0  0  0  0
   10.8100   46.9717   33.0949 H   0  0  0  0  0  0  0  0  0  0  0  0
    8.4032   46.6386   33.4159 H   0  0  0  0  0  0  0  0  0  0  0  0
    7.8141   44.9744   33.6805 H   0  0  0  0  0  0  0  0  0  0  0  0
   10.0757   46.4738   37.6964 H   0  0  0  0  0  0  0  0  0  0  0  0
   10.1402   48.2393   37.3570 H   0  0  0  0  0  0  0  0  0  0  0  0
    7.2949   48.5186   36.2181 H   0  0  0  0  0  0  0  0  0  0  0  0
    6.5273   47.0430   40.8878 H   0  0  0  0  0  0  0  0  0  0  0  0
    5.0988   48.8291   37.2712 H   0  0  0  0  0  0  0  0  0  0  0  0
    4.7042   48.0663   39.5911 H   0  0  0  0  0  0  0  0  0  0  0  0
    9.8235   40.7210   31.7580 H   0  0  0  0  0  0  0  0  0  0  0  0
   11.3856   41.5433   31.4688 H   0  0  0  0  0  0  0  0  0  0  0  0
   11.6994   39.5065   30.3488 H   0  0  0  0  0  0  0  0  0  0  0  0
   10.1120   38.2722   32.6632 H   0  0  0  0  0  0  0  0  0  0  0  0
   13.6816   37.4632   31.2269 H   0  0  0  0  0  0  0  0  0  0  0  0
    9.0037   37.3828   30.9349 H   0  0  0  0  0  0  0  0  0  0  0  0
   11.2846   36.3040   32.4928 H   0  0  0  0  0  0  0  0  0  0  0  0
   11.8850   36.9590   29.7588 H   0  0  0  0  0  0  0  0  0  0  0  0
   12.3363   38.3599   34.7441 H   0  0  0  0  0  0  0  0  0  0  0  0
   16.7574   34.1790   32.4623 H   0  0  0  0  0  0  0  0  0  0  0  0
   16.6363   34.5317   37.1418 H   0  0  0  0  0  0  0  0  0  0  0  0
   15.3529   35.7355   37.5141 H   0  0  0  0  0  0  0  0  0  0  0  0
  1  2  2  0
  1  3  1  0
  3  4  1  0
  4  5  1  0
  6  1  1  0
  7  6  1  0
  6  8  1  0
  8  9  1  0
  9 10  1  0
  9 11  2  0
 10 12  1  0
 12 13  1  0
 13 14  2  0
 15 13  1  0
 14 16  1  0
 14 17  1  0
 18 15  2  0
 16 19  1  0
 16 20  2  0
 17 21  2  0
 21 18  1  0
  4 22  2  0
  4 23  1  0
 24 23  1  0
 24 25  1  0
 25 26  1  0
 25 27  1  0
 26 28  1  0
 27 29  1  0
 27 30  1  0
 30 28  1  0
 28 31  1  0
 30 32  1  0
 33 31  1  0
 34 31  1  0
 35 33  2  0
 33 36  1  0
 37 34  2  0
 38 35  1  0
 36 39  2  0
 36 37  1  0
 40 38  2  0
 40 39  1  0
 39 41  1  0
  6 42  1  6
  7 43  1  0
  7 44  1  0
  8 45  1  0
  8 46  1  0
 12 47  1  0
 12 48  1  0
 15 49  1  0
 17 50  1  0
 18 51  1  0
 21 52  1  0
 24 53  1  0
 24 54  1  0
 25 55  1  0
 27 56  1  0
 28 57  1  0
 29 58  1  0
 30 59  1  0
 32 60  1  0
 34 61  1  0
 38 62  1  0
 41 63  1  0
 41 64  1  0
M  CHG  3   5  -1  16   1  19  -1
M  END
>  <EmbedRMS>  (229) 
0.0878641458268839

$$$$

     RDKit          3D

 64 67  0  0  0  0  0  0  0  0999 V2000
   10.2849   43.7725   33.8069 C   0  0  0  0  0  0  0  0  0  0  0  0
   11.4105   43.5874   34.3564 O   0  0  0  0  0  0  0  0  0  0  0  0
    9.3667   42.7311   33.7013 O   0  0  0  0  0  0  0  0  0  0  0  0
    9.8856   41.2339   34.2841 P   0  0  0  0  0  5  0  0  0  0  0  0
   10.3658   41.4694   35.8747 O   0  0  0  0  0  1  0  0  0  0  0  0
    9.9583   45.1106   33.2438 C   0  0  2  0  0  0  0  0  0  0  0  0
   11.0676   46.0367   33.4846 N   0  0  0  0  0  0  0  0  0  0  0  0
    8.6196   45.6575   33.7894 C   0  0  0  0  0  0  0  0  0  0  0  0
    8.6091   45.8030   35.2824 C   0  0  0  0  0  0  0  0  0  0  0  0
    9.0058   47.0130   35.8576 O   0  0  0  0  0  0  0  0  0  0  0  0
    8.2693   44.8272   36.0062 O   0  0  0  0  0  0  0  0  0  0  0  0
    9.0480   47.2186   37.2660 C   0  0  0  0  0  0  0  0  0  0  0  0
    9.4953   48.6284   37.5621 C   0  0  0  0  0  0  0  0  0  0  0  0
    8.8422   49.7618   37.0057 C   0  0  0  0  0  0  0  0  0  0  0  0
   10.6173   48.8206   38.3899 C   0  0  0  0  0  0  0  0  0  0  0  0
    7.6793   49.6341   36.1665 N   0  0  0  0  0  4  0  0  0  0  0  0
    9.3552   51.0453   37.2702 C   0  0  0  0  0  0  0  0  0  0  0  0
   11.0993   50.1037   38.6512 C   0  0  0  0  0  0  0  0  0  0  0  0
    6.6975   48.7168   36.4600 O   0  0  0  0  0  1  0  0  0  0  0  0
    7.4714   50.4625   35.2558 O   0  0  0  0  0  0  0  0  0  0  0  0
   10.4725   51.2133   38.0888 C   0  0  0  0  0  0  0  0  0  0  0  0
    8.8083   40.1910   34.2080 O   0  0  0  0  0  0  0  0  0  0  0  0
   11.2384   40.7904   33.3687 O   0  0  0  0  0  0  0  0  0  0  0  0
   10.9193   40.6895   31.9949 C   0  0  0  0  0  0  0  0  0  0  0  0
   11.5170   39.3801   31.4398 C   0  0  0  0  0  0  0  0  0  0  0  0
   12.7478   39.0862   32.0734 O   0  0  0  0  0  0  0  0  0  0  0  0
   10.6031   38.1891   31.6667 C   0  0  0  0  0  0  0  0  0  0  0  0
   12.9335   37.6797   32.0280 C   0  0  0  0  0  0  0  0  0  0  0  0
    9.6397   38.0777   30.6456 O   0  0  0  0  0  0  0  0  0  0  0  0
   11.5739   37.0154   31.7057 C   0  0  0  0  0  0  0  0  0  0  0  0
   13.4903   37.2178   33.3231 N   0  0  0  0  0  0  0  0  0  0  0  0
   11.6211   36.3376   30.4695 O   0  0  0  0  0  0  0  0  0  0  0  0
   14.4761   36.3273   33.5725 C   0  0  0  0  0  0  0  0  0  0  0  0
   13.1179   37.6317   34.5684 C   0  0  0  0  0  0  0  0  0  0  0  0
   15.2063   35.6139   32.6737 N   0  0  0  0  0  0  0  0  0  0  0  0
   14.6733   36.2277   34.9180 C   0  0  0  0  0  0  0  0  0  0  0  0
   13.8225   37.0459   35.5779 N   0  0  0  0  0  0  0  0  0  0  0  0
   16.1636   34.7594   33.1546 C   0  0  0  0  0  0  0  0  0  0  0  0
   15.6515   35.3494   35.4129 C   0  0  0  0  0  0  0  0  0  0  0  0
   16.3791   34.6311   34.5041 N   0  0  0  0  0  0  0  0  0  0  0  0
   15.9001   35.1935   36.8088 N   0  0  0  0  0  0  0  0  0  0  0  0
    9.8488   44.9837   32.1445 H   0  0  0  0  0  0  0  0  0  0  0  0
   10.8513   46.9476   33.0181 H   0  0  0  0  0  0  0  0  0  0  0  0
   11.1644   46.2261   34.5087 H   0  0  0  0  0  0  0  0  0  0  0  0
    8.4127   46.6479   33.3295 H   0  0  0  0  0  0  0  0  0  0  0  0
    7.7911   44.9819   33.4830 H   0  0  0  0  0  0  0  0  0  0  0  0
    8.0473   47.0418   37.7134 H   0  0  0  0  0  0  0  0  0  0  0  0
    9.7457   46.4772   37.7140 H   0  0  0  0  0  0  0  0  0  0  0  0
   11.1303   47.9738   38.8292 H   0  0  0  0  0  0  0  0  0  0  0  0
    8.8768   51.9226   36.8532 H   0  0  0  0  0  0  0  0  0  0  0  0
   11.9651   50.2370   39.2869 H   0  0  0  0  0  0  0  0  0  0  0  0
   10.8510   52.2073   38.2900 H   0  0  0  0  0  0  0  0  0  0  0  0
   11.4009   41.5437   31.4729 H   0  0  0  0  0  0  0  0  0  0  0  0
    9.8314   40.7396   31.7550 H   0  0  0  0  0  0  0  0  0  0  0  0
   11.6982   39.5043   30.3471 H   0  0  0  0  0  0  0  0  0  0  0  0
   10.1089   38.2631   32.6650 H   0  0  0  0  0  0  0  0  0  0  0  0
   13.6656   37.4541   31.2207 H   0  0  0  0  0  0  0  0  0  0  0  0
    8.8965   38.6899   30.8852 H   0  0  0  0  0  0  0  0  0  0  0  0
   11.2846   36.3060   32.5175 H   0  0  0  0  0  0  0  0  0  0  0  0
   10.8523   35.7094   30.4590 H   0  0  0  0  0  0  0  0  0  0  0  0
   12.3353   38.3588   34.7440 H   0  0  0  0  0  0  0  0  0  0  0  0
   16.7570   34.1788   32.4619 H   0  0  0  0  0  0  0  0  0  0  0  0
   15.3529   35.7359   37.5136 H   0  0  0  0  0  0  0  0  0  0  0  0
   16.6360   34.5317   37.1413 H   0  0  0  0  0  0  0  0  0  0  0  0
  1  2  2  0
  1  3  1  0
  3  4  1  0
  4  5  1  0
  6  1  1  0
  7  6  1  0
  6  8  1  0
  8  9  1  0
  9 10  1  0
  9 11  2  0
 10 12  1  0
 12 13  1  0
 13 14  2  0
 15 13  1  0
 14 16  1  0
 14 17  1  0
 18 15  2  0
 16 19  1  0
 16 20  2  0
 17 21  2  0
 21 18  1  0
  4 22  2  0
  4 23  1  0
 24 23  1  0
 24 25  1  0
 25 26  1  0
 25 27  1  0
 26 28  1  0
 27 29  1  0
 27 30  1  0
 30 28  1  0
 28 31  1  0
 30 32  1  0
 33 31  1  0
 34 31  1  0
 35 33  2  0
 33 36  1  0
 37 34  2  0
 38 35  1  0
 36 39  2  0
 36 37  1  0
 40 38  2  0
 40 39  1  0
 39 41  1  0
  6 42  1  6
  7 43  1  0
  7 44  1  0
  8 45  1  0
  8 46  1  0
 12 47  1  0
 12 48  1  0
 15 49  1  0
 17 50  1  0
 18 51  1  0
 21 52  1  0
 24 53  1  0
 24 54  1  0
 25 55  1  0
 27 56  1  0
 28 57  1  0
 29 58  1  0
 30 59  1  0
 32 60  1  0
 34 61  1  0
 38 62  1  0
 41 63  1  0
 41 64  1  0
M  CHG  3   5  -1  16   1  19  -1
M  END
>  <EmbedRMS>  (230) 
0.08933034745226848

$$$$

     RDKit          3D

 64 67  0  0  0  0  0  0  0  0999 V2000
   10.2862   43.7710   33.8100 C   0  0  0  0  0  0  0  0  0  0  0  0
   11.4102   43.5816   34.3614 O   0  0  0  0  0  0  0  0  0  0  0  0
    9.3665   42.7311   33.7024 O   0  0  0  0  0  0  0  0  0  0  0  0
    9.8845   41.2331   34.2841 P   0  0  0  0  0  5  0  0  0  0  0  0
   10.3659   41.4675   35.8745 O   0  0  0  0  0  1  0  0  0  0  0  0
    9.9612   45.1119   33.2468 C   0  0  2  0  0  0  0  0  0  0  0  0
   11.0651   46.0484   33.4752 N   0  0  0  0  0  0  0  0  0  0  0  0
    8.6634   45.6560   33.8673 C   0  0  0  0  0  0  0  0  0  0  0  0
    8.2966   46.9771   33.2668 C   0  0  0  0  0  0  0  0  0  0  0  0
    7.7850   47.0216   31.9648 O   0  0  0  0  0  0  0  0  0  0  0  0
    8.4917   48.0389   33.9193 O   0  0  0  0  0  0  0  0  0  0  0  0
    7.5431   48.2417   31.2647 C   0  0  0  0  0  0  0  0  0  0  0  0
    8.8389   48.9357   30.8998 C   0  0  0  0  0  0  0  0  0  0  0  0
    8.9438   50.3506   30.8605 C   0  0  0  0  0  0  0  0  0  0  0  0
    9.9676   48.1574   30.5759 C   0  0  0  0  0  0  0  0  0  0  0  0
    7.8004   51.1971   31.0671 N   0  0  0  0  0  4  0  0  0  0  0  0
   10.1921   50.9402   30.5910 C   0  0  0  0  0  0  0  0  0  0  0  0
   11.1932   48.7617   30.2940 C   0  0  0  0  0  0  0  0  0  0  0  0
    6.6014   50.9014   30.4603 O   0  0  0  0  0  1  0  0  0  0  0  0
    7.9348   52.3056   31.6254 O   0  0  0  0  0  0  0  0  0  0  0  0
   11.3084   50.1501   30.3138 C   0  0  0  0  0  0  0  0  0  0  0  0
    8.8068   40.1905   34.2081 O   0  0  0  0  0  0  0  0  0  0  0  0
   11.2362   40.7908   33.3671 O   0  0  0  0  0  0  0  0  0  0  0  0
   10.9133   40.6860   31.9945 C   0  0  0  0  0  0  0  0  0  0  0  0
   11.5168   39.3797   31.4409 C   0  0  0  0  0  0  0  0  0  0  0  0
   12.7486   39.0887   32.0763 O   0  0  0  0  0  0  0  0  0  0  0  0
   10.6051   38.1876   31.6659 C   0  0  0  0  0  0  0  0  0  0  0  0
   12.9411   37.6829   32.0278 C   0  0  0  0  0  0  0  0  0  0  0  0
    9.6358   38.0930   30.6502 O   0  0  0  0  0  0  0  0  0  0  0  0
   11.5827   37.0179   31.6936 C   0  0  0  0  0  0  0  0  0  0  0  0
   13.4909   37.2177   33.3239 N   0  0  0  0  0  0  0  0  0  0  0  0
   11.6141   36.3180   30.4675 O   0  0  0  0  0  0  0  0  0  0  0  0
   14.4762   36.3270   33.5733 C   0  0  0  0  0  0  0  0  0  0  0  0
   13.1179   37.6317   34.5689 C   0  0  0  0  0  0  0  0  0  0  0  0
   15.2067   35.6140   32.6743 N   0  0  0  0  0  0  0  0  0  0  0  0
   14.6731   36.2273   34.9186 C   0  0  0  0  0  0  0  0  0  0  0  0
   13.8223   37.0456   35.5785 N   0  0  0  0  0  0  0  0  0  0  0  0
   16.1639   34.7595   33.1551 C   0  0  0  0  0  0  0  0  0  0  0  0
   15.6515   35.3491   35.4134 C   0  0  0  0  0  0  0  0  0  0  0  0
   16.3792   34.6310   34.5045 N   0  0  0  0  0  0  0  0  0  0  0  0
   15.9002   35.1934   36.8093 N   0  0  0  0  0  0  0  0  0  0  0  0
    9.8129   44.9934   32.1505 H   0  0  0  0  0  0  0  0  0  0  0  0
   11.9212   45.7053   32.9807 H   0  0  0  0  0  0  0  0  0  0  0  0
   11.2755   46.1175   34.4984 H   0  0  0  0  0  0  0  0  0  0  0  0
    8.7812   45.7612   34.9688 H   0  0  0  0  0  0  0  0  0  0  0  0
    7.8290   44.9458   33.6802 H   0  0  0  0  0  0  0  0  0  0  0  0
    6.9014   48.8868   31.9012 H   0  0  0  0  0  0  0  0  0  0  0  0
    6.9886   48.0126   30.3310 H   0  0  0  0  0  0  0  0  0  0  0  0
    9.9057   47.0767   30.5564 H   0  0  0  0  0  0  0  0  0  0  0  0
   10.2947   52.0179   30.5684 H   0  0  0  0  0  0  0  0  0  0  0  0
   12.0566   48.1510   30.0633 H   0  0  0  0  0  0  0  0  0  0  0  0
   12.2609   50.6164   30.0973 H   0  0  0  0  0  0  0  0  0  0  0  0
    9.8232   40.7211   31.7578 H   0  0  0  0  0  0  0  0  0  0  0  0
   11.3853   41.5434   31.4688 H   0  0  0  0  0  0  0  0  0  0  0  0
   11.6993   39.5065   30.3487 H   0  0  0  0  0  0  0  0  0  0  0  0
   10.1120   38.2722   32.6631 H   0  0  0  0  0  0  0  0  0  0  0  0
   13.6816   37.4634   31.2269 H   0  0  0  0  0  0  0  0  0  0  0  0
    9.0037   37.3827   30.9348 H   0  0  0  0  0  0  0  0  0  0  0  0
   11.2846   36.3041   32.4928 H   0  0  0  0  0  0  0  0  0  0  0  0
   11.8850   36.9590   29.7588 H   0  0  0  0  0  0  0  0  0  0  0  0
   12.3363   38.3599   34.7441 H   0  0  0  0  0  0  0  0  0  0  0  0
   16.7574   34.1790   32.4623 H   0  0  0  0  0  0  0  0  0  0  0  0
   15.3529   35.7356   37.5141 H   0  0  0  0  0  0  0  0  0  0  0  0
   16.6363   34.5317   37.1418 H   0  0  0  0  0  0  0  0  0  0  0  0
  1  2  2  0
  1  3  1  0
  3  4  1  0
  4  5  1  0
  6  1  1  0
  7  6  1  0
  6  8  1  0
  8  9  1  0
  9 10  1  0
  9 11  2  0
 10 12  1  0
 12 13  1  0
 13 14  2  0
 15 13  1  0
 14 16  1  0
 14 17  1  0
 18 15  2  0
 16 19  1  0
 16 20  2  0
 17 21  2  0
 21 18  1  0
  4 22  2  0
  4 23  1  0
 24 23  1  0
 24 25  1  0
 25 26  1  0
 25 27  1  0
 26 28  1  0
 27 29  1  0
 27 30  1  0
 30 28  1  0
 28 31  1  0
 30 32  1  0
 33 31  1  0
 34 31  1  0
 35 33  2  0
 33 36  1  0
 37 34  2  0
 38 35  1  0
 36 39  2  0
 36 37  1  0
 40 38  2  0
 40 39  1  0
 39 41  1  0
  6 42  1  6
  7 43  1  0
  7 44  1  0
  8 45  1  0
  8 46  1  0
 12 47  1  0
 12 48  1  0
 15 49  1  0
 17 50  1  0
 18 51  1  0
 21 52  1  0
 24 53  1  0
 24 54  1  0
 25 55  1  0
 27 56  1  0
 28 57  1  0
 29 58  1  0
 30 59  1  0
 32 60  1  0
 34 61  1  0
 38 62  1  0
 41 63  1  0
 41 64  1  0
M  CHG  3   5  -1  16   1  19  -1
M  END
>  <EmbedRMS>  (231) 
0.08835321919030503

$$$$

     RDKit          3D

 64 67  0  0  0  0  0  0  0  0999 V2000
   10.2846   43.7740   33.8065 C   0  0  0  0  0  0  0  0  0  0  0  0
   11.4069   43.5900   34.3634 O   0  0  0  0  0  0  0  0  0  0  0  0
    9.3681   42.7309   33.6984 O   0  0  0  0  0  0  0  0  0  0  0  0
    9.8860   41.2341   34.2835 P   0  0  0  0  0  5  0  0  0  0  0  0
   10.3661   41.4698   35.8741 O   0  0  0  0  0  1  0  0  0  0  0  0
    9.9486   45.1167   33.2563 C   0  0  2  0  0  0  0  0  0  0  0  0
   11.0757   46.0284   33.4725 N   0  0  0  0  0  0  0  0  0  0  0  0
    8.6787   45.6520   33.9477 C   0  0  0  0  0  0  0  0  0  0  0  0
    8.1963   46.9166   33.3087 C   0  0  0  0  0  0  0  0  0  0  0  0
    8.5121   48.1461   33.8969 O   0  0  0  0  0  0  0  0  0  0  0  0
    7.5419   46.8635   32.2319 O   0  0  0  0  0  0  0  0  0  0  0  0
    8.2877   49.4038   33.2635 C   0  0  0  0  0  0  0  0  0  0  0  0
    9.2862   49.6193   32.1512 C   0  0  0  0  0  0  0  0  0  0  0  0
   10.6178   50.0492   32.4001 C   0  0  0  0  0  0  0  0  0  0  0  0
    8.8752   49.3888   30.8254 C   0  0  0  0  0  0  0  0  0  0  0  0
   11.1039   50.2929   33.7334 N   0  0  0  0  0  4  0  0  0  0  0  0
   11.4826   50.2602   31.3099 C   0  0  0  0  0  0  0  0  0  0  0  0
    9.7540   49.5903   29.7610 C   0  0  0  0  0  0  0  0  0  0  0  0
   10.7635   49.4577   34.7713 O   0  0  0  0  0  1  0  0  0  0  0  0
   11.9733   51.1668   33.9305 O   0  0  0  0  0  0  0  0  0  0  0  0
   11.0541   50.0282   30.0024 C   0  0  0  0  0  0  0  0  0  0  0  0
    8.8083   40.1913   34.2081 O   0  0  0  0  0  0  0  0  0  0  0  0
   11.2378   40.7898   33.3679 O   0  0  0  0  0  0  0  0  0  0  0  0
   10.9164   40.6889   31.9948 C   0  0  0  0  0  0  0  0  0  0  0  0
   11.5254   39.3871   31.4362 C   0  0  0  0  0  0  0  0  0  0  0  0
   12.7488   39.0878   32.0800 O   0  0  0  0  0  0  0  0  0  0  0  0
   10.6102   38.1909   31.6470 C   0  0  0  0  0  0  0  0  0  0  0  0
   12.9349   37.6807   32.0292 C   0  0  0  0  0  0  0  0  0  0  0  0
    9.6127   38.0874   30.6547 O   0  0  0  0  0  0  0  0  0  0  0  0
   11.5768   37.0133   31.7026 C   0  0  0  0  0  0  0  0  0  0  0  0
   13.4902   37.2165   33.3236 N   0  0  0  0  0  0  0  0  0  0  0  0
   11.6323   36.3230   30.4742 O   0  0  0  0  0  0  0  0  0  0  0  0
   14.4763   36.3266   33.5727 C   0  0  0  0  0  0  0  0  0  0  0  0
   13.1179   37.6306   34.5689 C   0  0  0  0  0  0  0  0  0  0  0  0
   15.2064   35.6134   32.6739 N   0  0  0  0  0  0  0  0  0  0  0  0
   14.6736   36.2272   34.9182 C   0  0  0  0  0  0  0  0  0  0  0  0
   13.8227   37.0452   35.5783 N   0  0  0  0  0  0  0  0  0  0  0  0
   16.1638   34.7591   33.1547 C   0  0  0  0  0  0  0  0  0  0  0  0
   15.6519   35.3492   35.4131 C   0  0  0  0  0  0  0  0  0  0  0  0
   16.3794   34.6308   34.5042 N   0  0  0  0  0  0  0  0  0  0  0  0
   15.9005   35.1934   36.8090 N   0  0  0  0  0  0  0  0  0  0  0  0
    9.7600   45.0067   32.1641 H   0  0  0  0  0  0  0  0  0  0  0  0
   10.8505   46.9514   33.0367 H   0  0  0  0  0  0  0  0  0  0  0  0
   11.8978   45.6719   32.9316 H   0  0  0  0  0  0  0  0  0  0  0  0
    7.8625   44.8990   33.8845 H   0  0  0  0  0  0  0  0  0  0  0  0
    8.8846   45.8377   35.0249 H   0  0  0  0  0  0  0  0  0  0  0  0
    7.2421   49.4566   32.8876 H   0  0  0  0  0  0  0  0  0  0  0  0
    8.3881   50.2127   34.0169 H   0  0  0  0  0  0  0  0  0  0  0  0
    7.8659   49.0595   30.6119 H   0  0  0  0  0  0  0  0  0  0  0  0
   12.5004   50.5907   31.4747 H   0  0  0  0  0  0  0  0  0  0  0  0
    9.4240   49.4110   28.7458 H   0  0  0  0  0  0  0  0  0  0  0  0
   11.7333   50.1867   29.1746 H   0  0  0  0  0  0  0  0  0  0  0  0
    9.8264   40.7203   31.7575 H   0  0  0  0  0  0  0  0  0  0  0  0
   11.3850   41.5505   31.4730 H   0  0  0  0  0  0  0  0  0  0  0  0
   11.7275   39.5284   30.3499 H   0  0  0  0  0  0  0  0  0  0  0  0
   10.1123   38.2734   32.6389 H   0  0  0  0  0  0  0  0  0  0  0  0
   13.6685   37.4587   31.2224 H   0  0  0  0  0  0  0  0  0  0  0  0
   10.0513   38.1110   29.7647 H   0  0  0  0  0  0  0  0  0  0  0  0
   11.2804   36.3128   32.5196 H   0  0  0  0  0  0  0  0  0  0  0  0
   10.8625   35.6960   30.4645 H   0  0  0  0  0  0  0  0  0  0  0  0
   12.3354   38.3579   34.7444 H   0  0  0  0  0  0  0  0  0  0  0  0
   16.7570   34.1783   32.4619 H   0  0  0  0  0  0  0  0  0  0  0  0
   16.6364   34.5317   37.1416 H   0  0  0  0  0  0  0  0  0  0  0  0
   15.3531   35.7356   37.5138 H   0  0  0  0  0  0  0  0  0  0  0  0
  1  2  2  0
  1  3  1  0
  3  4  1  0
  4  5  1  0
  6  1  1  0
  7  6  1  0
  6  8  1  0
  8  9  1  0
  9 10  1  0
  9 11  2  0
 10 12  1  0
 12 13  1  0
 13 14  2  0
 15 13  1  0
 14 16  1  0
 14 17  1  0
 18 15  2  0
 16 19  1  0
 16 20  2  0
 17 21  2  0
 21 18  1  0
  4 22  2  0
  4 23  1  0
 24 23  1  0
 24 25  1  0
 25 26  1  0
 25 27  1  0
 26 28  1  0
 27 29  1  0
 27 30  1  0
 30 28  1  0
 28 31  1  0
 30 32  1  0
 33 31  1  0
 34 31  1  0
 35 33  2  0
 33 36  1  0
 37 34  2  0
 38 35  1  0
 36 39  2  0
 36 37  1  0
 40 38  2  0
 40 39  1  0
 39 41  1  0
  6 42  1  6
  7 43  1  0
  7 44  1  0
  8 45  1  0
  8 46  1  0
 12 47  1  0
 12 48  1  0
 15 49  1  0
 17 50  1  0
 18 51  1  0
 21 52  1  0
 24 53  1  0
 24 54  1  0
 25 55  1  0
 27 56  1  0
 28 57  1  0
 29 58  1  0
 30 59  1  0
 32 60  1  0
 34 61  1  0
 38 62  1  0
 41 63  1  0
 41 64  1  0
M  CHG  3   5  -1  16   1  19  -1
M  END
>  <EmbedRMS>  (232) 
0.08825665632034917

$$$$

     RDKit          3D

 64 67  0  0  0  0  0  0  0  0999 V2000
   10.2844   43.7742   33.8068 C   0  0  0  0  0  0  0  0  0  0  0  0
   11.4068   43.5903   34.3637 O   0  0  0  0  0  0  0  0  0  0  0  0
    9.3681   42.7309   33.6988 O   0  0  0  0  0  0  0  0  0  0  0  0
    9.8861   41.2341   34.2839 P   0  0  0  0  0  5  0  0  0  0  0  0
   10.3656   41.4698   35.8747 O   0  0  0  0  0  1  0  0  0  0  0  0
    9.9489   45.1165   33.2550 C   0  0  2  0  0  0  0  0  0  0  0  0
   11.0755   46.0281   33.4731 N   0  0  0  0  0  0  0  0  0  0  0  0
    8.6781   45.6532   33.9432 C   0  0  0  0  0  0  0  0  0  0  0  0
    8.1771   46.9007   33.2836 C   0  0  0  0  0  0  0  0  0  0  0  0
    8.5253   48.1457   33.8140 O   0  0  0  0  0  0  0  0  0  0  0  0
    7.4770   46.8192   32.2375 O   0  0  0  0  0  0  0  0  0  0  0  0
    8.1229   49.3769   33.2193 C   0  0  0  0  0  0  0  0  0  0  0  0
    8.7066   50.5522   33.9696 C   0  0  0  0  0  0  0  0  0  0  0  0
    8.0429   51.8068   34.0182 C   0  0  0  0  0  0  0  0  0  0  0  0
    9.9541   50.4141   34.6103 C   0  0  0  0  0  0  0  0  0  0  0  0
    6.8234   52.0440   33.2936 N   0  0  0  0  0  4  0  0  0  0  0  0
    8.6011   52.8509   34.7781 C   0  0  0  0  0  0  0  0  0  0  0  0
   10.4999   51.4689   35.3431 C   0  0  0  0  0  0  0  0  0  0  0  0
    6.6825   51.5885   32.0029 O   0  0  0  0  0  1  0  0  0  0  0  0
    5.9642   52.8250   33.7524 O   0  0  0  0  0  0  0  0  0  0  0  0
    9.8189   52.6806   35.4371 C   0  0  0  0  0  0  0  0  0  0  0  0
    8.8086   40.1912   34.2076 O   0  0  0  0  0  0  0  0  0  0  0  0
   11.2387   40.7905   33.3693 O   0  0  0  0  0  0  0  0  0  0  0  0
   10.9192   40.6905   31.9959 C   0  0  0  0  0  0  0  0  0  0  0  0
   11.5177   39.3823   31.4410 C   0  0  0  0  0  0  0  0  0  0  0  0
   12.7496   39.0891   32.0754 O   0  0  0  0  0  0  0  0  0  0  0  0
   10.6037   38.1899   31.6659 C   0  0  0  0  0  0  0  0  0  0  0  0
   12.9401   37.6832   32.0276 C   0  0  0  0  0  0  0  0  0  0  0  0
    9.6377   38.0785   30.6474 O   0  0  0  0  0  0  0  0  0  0  0  0
   11.5804   37.0203   31.6937 C   0  0  0  0  0  0  0  0  0  0  0  0
   13.4902   37.2177   33.3237 N   0  0  0  0  0  0  0  0  0  0  0  0
   11.6117   36.3192   30.4680 O   0  0  0  0  0  0  0  0  0  0  0  0
   14.4759   36.3271   33.5731 C   0  0  0  0  0  0  0  0  0  0  0  0
   13.1176   37.6317   34.5688 C   0  0  0  0  0  0  0  0  0  0  0  0
   15.2064   35.6141   32.6742 N   0  0  0  0  0  0  0  0  0  0  0  0
   14.6729   36.2274   34.9184 C   0  0  0  0  0  0  0  0  0  0  0  0
   13.8221   37.0457   35.5783 N   0  0  0  0  0  0  0  0  0  0  0  0
   16.1637   34.7596   33.1549 C   0  0  0  0  0  0  0  0  0  0  0  0
   15.6514   35.3493   35.4133 C   0  0  0  0  0  0  0  0  0  0  0  0
   16.3791   34.6312   34.5044 N   0  0  0  0  0  0  0  0  0  0  0  0
   15.9001   35.1934   36.8091 N   0  0  0  0  0  0  0  0  0  0  0  0
    9.7627   45.0051   32.1625 H   0  0  0  0  0  0  0  0  0  0  0  0
   10.8479   46.9542   33.0449 H   0  0  0  0  0  0  0  0  0  0  0  0
   11.8964   45.6751   32.9279 H   0  0  0  0  0  0  0  0  0  0  0  0
    8.8881   45.8615   35.0154 H   0  0  0  0  0  0  0  0  0  0  0  0
    7.8687   44.8914   33.9008 H   0  0  0  0  0  0  0  0  0  0  0  0
    8.4738   49.4151   32.1656 H   0  0  0  0  0  0  0  0  0  0  0  0
    7.0131   49.4187   33.2395 H   0  0  0  0  0  0  0  0  0  0  0  0
   10.5058   49.4840   34.5540 H   0  0  0  0  0  0  0  0  0  0  0  0
    8.1040   53.8111   34.8371 H   0  0  0  0  0  0  0  0  0  0  0  0
   11.4527   51.3449   35.8414 H   0  0  0  0  0  0  0  0  0  0  0  0
   10.2434   53.4961   36.0085 H   0  0  0  0  0  0  0  0  0  0  0  0
   11.4003   41.5453   31.4742 H   0  0  0  0  0  0  0  0  0  0  0  0
    9.8314   40.7398   31.7557 H   0  0  0  0  0  0  0  0  0  0  0  0
   11.6991   39.5089   30.3487 H   0  0  0  0  0  0  0  0  0  0  0  0
   10.1132   38.2590   32.6664 H   0  0  0  0  0  0  0  0  0  0  0  0
   13.6801   37.4625   31.2265 H   0  0  0  0  0  0  0  0  0  0  0  0
    8.8953   38.6909   30.8891 H   0  0  0  0  0  0  0  0  0  0  0  0
   11.2830   36.3060   32.4929 H   0  0  0  0  0  0  0  0  0  0  0  0
   11.8859   36.9588   29.7593 H   0  0  0  0  0  0  0  0  0  0  0  0
   12.3360   38.3600   34.7441 H   0  0  0  0  0  0  0  0  0  0  0  0
   16.7572   34.1793   32.4621 H   0  0  0  0  0  0  0  0  0  0  0  0
   15.3528   35.7356   37.5140 H   0  0  0  0  0  0  0  0  0  0  0  0
   16.6362   34.5318   37.1416 H   0  0  0  0  0  0  0  0  0  0  0  0
  1  2  2  0
  1  3  1  0
  3  4  1  0
  4  5  1  0
  6  1  1  0
  7  6  1  0
  6  8  1  0
  8  9  1  0
  9 10  1  0
  9 11  2  0
 10 12  1  0
 12 13  1  0
 13 14  2  0
 15 13  1  0
 14 16  1  0
 14 17  1  0
 18 15  2  0
 16 19  1  0
 16 20  2  0
 17 21  2  0
 21 18  1  0
  4 22  2  0
  4 23  1  0
 24 23  1  0
 24 25  1  0
 25 26  1  0
 25 27  1  0
 26 28  1  0
 27 29  1  0
 27 30  1  0
 30 28  1  0
 28 31  1  0
 30 32  1  0
 33 31  1  0
 34 31  1  0
 35 33  2  0
 33 36  1  0
 37 34  2  0
 38 35  1  0
 36 39  2  0
 36 37  1  0
 40 38  2  0
 40 39  1  0
 39 41  1  0
  6 42  1  6
  7 43  1  0
  7 44  1  0
  8 45  1  0
  8 46  1  0
 12 47  1  0
 12 48  1  0
 15 49  1  0
 17 50  1  0
 18 51  1  0
 21 52  1  0
 24 53  1  0
 24 54  1  0
 25 55  1  0
 27 56  1  0
 28 57  1  0
 29 58  1  0
 30 59  1  0
 32 60  1  0
 34 61  1  0
 38 62  1  0
 41 63  1  0
 41 64  1  0
M  CHG  3   5  -1  16   1  19  -1
M  END
>  <EmbedRMS>  (233) 
0.0884173923202274

$$$$

     RDKit          3D

 64 67  0  0  0  0  0  0  0  0999 V2000
   10.2862   43.7717   33.8041 C   0  0  0  0  0  0  0  0  0  0  0  0
   11.4114   43.5870   34.3545 O   0  0  0  0  0  0  0  0  0  0  0  0
    9.3671   42.7309   33.7001 O   0  0  0  0  0  0  0  0  0  0  0  0
    9.8851   41.2344   34.2851 P   0  0  0  0  0  5  0  0  0  0  0  0
   10.3647   41.4710   35.8757 O   0  0  0  0  0  1  0  0  0  0  0  0
    9.9565   45.1117   33.2470 C   0  0  2  0  0  0  0  0  0  0  0  0
   11.0672   46.0363   33.4856 N   0  0  0  0  0  0  0  0  0  0  0  0
    8.6228   45.6577   33.8059 C   0  0  0  0  0  0  0  0  0  0  0  0
    8.6165   45.7666   35.3024 C   0  0  0  0  0  0  0  0  0  0  0  0
    8.3916   44.6201   36.0725 O   0  0  0  0  0  0  0  0  0  0  0  0
    8.8394   46.8798   35.8510 O   0  0  0  0  0  0  0  0  0  0  0  0
    8.4044   44.6122   37.4987 C   0  0  0  0  0  0  0  0  0  0  0  0
    7.2030   45.3456   38.0508 C   0  0  0  0  0  0  0  0  0  0  0  0
    7.3057   46.3594   39.0403 C   0  0  0  0  0  0  0  0  0  0  0  0
    5.9274   44.9302   37.6273 C   0  0  0  0  0  0  0  0  0  0  0  0
    8.5739   46.8362   39.5137 N   0  0  0  0  0  4  0  0  0  0  0  0
    6.1332   46.9128   39.5820 C   0  0  0  0  0  0  0  0  0  0  0  0
    4.7747   45.5060   38.1634 C   0  0  0  0  0  0  0  0  0  0  0  0
    8.7439   47.0971   40.8537 O   0  0  0  0  0  1  0  0  0  0  0  0
    9.4217   47.2666   38.7055 O   0  0  0  0  0  0  0  0  0  0  0  0
    4.8773   46.4929   39.1418 C   0  0  0  0  0  0  0  0  0  0  0  0
    8.8078   40.1914   34.2088 O   0  0  0  0  0  0  0  0  0  0  0  0
   11.2378   40.7904   33.3703 O   0  0  0  0  0  0  0  0  0  0  0  0
   10.9186   40.6905   31.9967 C   0  0  0  0  0  0  0  0  0  0  0  0
   11.5174   39.3825   31.4414 C   0  0  0  0  0  0  0  0  0  0  0  0
   12.7494   39.0893   32.0757 O   0  0  0  0  0  0  0  0  0  0  0  0
   10.6036   38.1899   31.6660 C   0  0  0  0  0  0  0  0  0  0  0  0
   12.9401   37.6834   32.0276 C   0  0  0  0  0  0  0  0  0  0  0  0
    9.6377   38.0785   30.6474 O   0  0  0  0  0  0  0  0  0  0  0  0
   11.5803   37.0204   31.6937 C   0  0  0  0  0  0  0  0  0  0  0  0
   13.4902   37.2177   33.3237 N   0  0  0  0  0  0  0  0  0  0  0  0
   11.6118   36.3193   30.4680 O   0  0  0  0  0  0  0  0  0  0  0  0
   14.4759   36.3271   33.5731 C   0  0  0  0  0  0  0  0  0  0  0  0
   13.1176   37.6317   34.5688 C   0  0  0  0  0  0  0  0  0  0  0  0
   15.2064   35.6142   32.6742 N   0  0  0  0  0  0  0  0  0  0  0  0
   14.6729   36.2274   34.9184 C   0  0  0  0  0  0  0  0  0  0  0  0
   13.8221   37.0457   35.5783 N   0  0  0  0  0  0  0  0  0  0  0  0
   16.1637   34.7597   33.1549 C   0  0  0  0  0  0  0  0  0  0  0  0
   15.6514   35.3493   35.4133 C   0  0  0  0  0  0  0  0  0  0  0  0
   16.3791   34.6312   34.5044 N   0  0  0  0  0  0  0  0  0  0  0  0
   15.9001   35.1934   36.8091 N   0  0  0  0  0  0  0  0  0  0  0  0
    9.8395   44.9890   32.1479 H   0  0  0  0  0  0  0  0  0  0  0  0
   10.8570   46.9421   33.0066 H   0  0  0  0  0  0  0  0  0  0  0  0
   11.1542   46.2381   34.5083 H   0  0  0  0  0  0  0  0  0  0  0  0
    8.4159   46.6547   33.3592 H   0  0  0  0  0  0  0  0  0  0  0  0
    7.7918   44.9877   33.4960 H   0  0  0  0  0  0  0  0  0  0  0  0
    8.3515   43.5570   37.8402 H   0  0  0  0  0  0  0  0  0  0  0  0
    9.3721   45.0076   37.8623 H   0  0  0  0  0  0  0  0  0  0  0  0
    5.8256   44.1469   36.8859 H   0  0  0  0  0  0  0  0  0  0  0  0
    6.1942   47.6856   40.3380 H   0  0  0  0  0  0  0  0  0  0  0  0
    3.7996   45.1778   37.8271 H   0  0  0  0  0  0  0  0  0  0  0  0
    3.9820   46.9337   39.5609 H   0  0  0  0  0  0  0  0  0  0  0  0
   11.3994   41.5456   31.4752 H   0  0  0  0  0  0  0  0  0  0  0  0
    9.8307   40.7395   31.7566 H   0  0  0  0  0  0  0  0  0  0  0  0
   11.6987   39.5094   30.3492 H   0  0  0  0  0  0  0  0  0  0  0  0
   10.1129   38.2588   32.6664 H   0  0  0  0  0  0  0  0  0  0  0  0
   13.6800   37.4628   31.2265 H   0  0  0  0  0  0  0  0  0  0  0  0
    8.8953   38.6909   30.8891 H   0  0  0  0  0  0  0  0  0  0  0  0
   11.2831   36.3060   32.4929 H   0  0  0  0  0  0  0  0  0  0  0  0
   11.8859   36.9590   29.7593 H   0  0  0  0  0  0  0  0  0  0  0  0
   12.3360   38.3600   34.7442 H   0  0  0  0  0  0  0  0  0  0  0  0
   16.7572   34.1793   32.4621 H   0  0  0  0  0  0  0  0  0  0  0  0
   15.3528   35.7356   37.5140 H   0  0  0  0  0  0  0  0  0  0  0  0
   16.6362   34.5318   37.1416 H   0  0  0  0  0  0  0  0  0  0  0  0
  1  2  2  0
  1  3  1  0
  3  4  1  0
  4  5  1  0
  6  1  1  0
  7  6  1  0
  6  8  1  0
  8  9  1  0
  9 10  1  0
  9 11  2  0
 10 12  1  0
 12 13  1  0
 13 14  2  0
 15 13  1  0
 14 16  1  0
 14 17  1  0
 18 15  2  0
 16 19  1  0
 16 20  2  0
 17 21  2  0
 21 18  1  0
  4 22  2  0
  4 23  1  0
 24 23  1  0
 24 25  1  0
 25 26  1  0
 25 27  1  0
 26 28  1  0
 27 29  1  0
 27 30  1  0
 30 28  1  0
 28 31  1  0
 30 32  1  0
 33 31  1  0
 34 31  1  0
 35 33  2  0
 33 36  1  0
 37 34  2  0
 38 35  1  0
 36 39  2  0
 36 37  1  0
 40 38  2  0
 40 39  1  0
 39 41  1  0
  6 42  1  6
  7 43  1  0
  7 44  1  0
  8 45  1  0
  8 46  1  0
 12 47  1  0
 12 48  1  0
 15 49  1  0
 17 50  1  0
 18 51  1  0
 21 52  1  0
 24 53  1  0
 24 54  1  0
 25 55  1  0
 27 56  1  0
 28 57  1  0
 29 58  1  0
 30 59  1  0
 32 60  1  0
 34 61  1  0
 38 62  1  0
 41 63  1  0
 41 64  1  0
M  CHG  3   5  -1  16   1  19  -1
M  END
>  <EmbedRMS>  (234) 
0.08819613272724115

$$$$

     RDKit          3D

 64 67  0  0  0  0  0  0  0  0999 V2000
   10.2860   43.7719   33.8044 C   0  0  0  0  0  0  0  0  0  0  0  0
   11.4086   43.5883   34.3608 O   0  0  0  0  0  0  0  0  0  0  0  0
    9.3672   42.7311   33.6994 O   0  0  0  0  0  0  0  0  0  0  0  0
    9.8853   41.2343   34.2839 P   0  0  0  0  0  5  0  0  0  0  0  0
   10.3662   41.4702   35.8742 O   0  0  0  0  0  1  0  0  0  0  0  0
    9.9530   45.1149   33.2535 C   0  0  2  0  0  0  0  0  0  0  0  0
   11.0712   46.0329   33.4769 N   0  0  0  0  0  0  0  0  0  0  0  0
    8.6595   45.6660   33.8879 C   0  0  0  0  0  0  0  0  0  0  0  0
    8.7692   45.8135   35.3771 C   0  0  0  0  0  0  0  0  0  0  0  0
    9.5108   46.8703   35.9114 O   0  0  0  0  0  0  0  0  0  0  0  0
    8.2190   44.9667   36.1333 O   0  0  0  0  0  0  0  0  0  0  0  0
    9.6758   47.0633   37.3125 C   0  0  0  0  0  0  0  0  0  0  0  0
   10.6146   48.2183   37.5581 C   0  0  0  0  0  0  0  0  0  0  0  0
   11.9383   48.2445   37.0357 C   0  0  0  0  0  0  0  0  0  0  0  0
   10.1452   49.3228   38.2935 C   0  0  0  0  0  0  0  0  0  0  0  0
   12.4892   47.1471   36.2828 N   0  0  0  0  0  4  0  0  0  0  0  0
   12.7320   49.3870   37.2442 C   0  0  0  0  0  0  0  0  0  0  0  0
   10.9570   50.4384   38.5011 C   0  0  0  0  0  0  0  0  0  0  0  0
   13.4550   47.3840   35.3316 O   0  0  0  0  0  1  0  0  0  0  0  0
   12.2284   45.9657   36.5880 O   0  0  0  0  0  0  0  0  0  0  0  0
   12.2460   50.4722   37.9742 C   0  0  0  0  0  0  0  0  0  0  0  0
    8.8077   40.1915   34.2087 O   0  0  0  0  0  0  0  0  0  0  0  0
   11.2367   40.7908   33.3672 O   0  0  0  0  0  0  0  0  0  0  0  0
   10.9136   40.6861   31.9946 C   0  0  0  0  0  0  0  0  0  0  0  0
   11.5169   39.3797   31.4410 C   0  0  0  0  0  0  0  0  0  0  0  0
   12.7487   39.0887   32.0763 O   0  0  0  0  0  0  0  0  0  0  0  0
   10.6051   38.1876   31.6659 C   0  0  0  0  0  0  0  0  0  0  0  0
   12.9412   37.6829   32.0278 C   0  0  0  0  0  0  0  0  0  0  0  0
    9.6359   38.0930   30.6502 O   0  0  0  0  0  0  0  0  0  0  0  0
   11.5827   37.0180   31.6937 C   0  0  0  0  0  0  0  0  0  0  0  0
   13.4909   37.2177   33.3239 N   0  0  0  0  0  0  0  0  0  0  0  0
   11.6141   36.3179   30.4676 O   0  0  0  0  0  0  0  0  0  0  0  0
   14.4762   36.3269   33.5733 C   0  0  0  0  0  0  0  0  0  0  0  0
   13.1180   37.6318   34.5689 C   0  0  0  0  0  0  0  0  0  0  0  0
   15.2067   35.6140   32.6743 N   0  0  0  0  0  0  0  0  0  0  0  0
   14.6731   36.2272   34.9186 C   0  0  0  0  0  0  0  0  0  0  0  0
   13.8223   37.0456   35.5785 N   0  0  0  0  0  0  0  0  0  0  0  0
   16.1639   34.7595   33.1550 C   0  0  0  0  0  0  0  0  0  0  0  0
   15.6515   35.3491   35.4134 C   0  0  0  0  0  0  0  0  0  0  0  0
   16.3793   34.6310   34.5045 N   0  0  0  0  0  0  0  0  0  0  0  0
   15.9002   35.1933   36.8092 N   0  0  0  0  0  0  0  0  0  0  0  0
    9.7843   45.0063   32.1585 H   0  0  0  0  0  0  0  0  0  0  0  0
   11.8839   45.7115   32.9009 H   0  0  0  0  0  0  0  0  0  0  0  0
   10.8118   46.9719   33.0958 H   0  0  0  0  0  0  0  0  0  0  0  0
    8.4247   46.6587   33.4471 H   0  0  0  0  0  0  0  0  0  0  0  0
    7.8079   44.9945   33.6404 H   0  0  0  0  0  0  0  0  0  0  0  0
   10.0804   46.1447   37.7874 H   0  0  0  0  0  0  0  0  0  0  0  0
    8.6785   47.2533   37.7666 H   0  0  0  0  0  0  0  0  0  0  0  0
    9.1420   49.3278   38.7018 H   0  0  0  0  0  0  0  0  0  0  0  0
   13.7404   49.4323   36.8528 H   0  0  0  0  0  0  0  0  0  0  0  0
   10.5824   51.2819   39.0667 H   0  0  0  0  0  0  0  0  0  0  0  0
   12.8721   51.3408   38.1335 H   0  0  0  0  0  0  0  0  0  0  0  0
    9.8235   40.7212   31.7580 H   0  0  0  0  0  0  0  0  0  0  0  0
   11.3857   41.5434   31.4689 H   0  0  0  0  0  0  0  0  0  0  0  0
   11.6993   39.5065   30.3488 H   0  0  0  0  0  0  0  0  0  0  0  0
   10.1119   38.2721   32.6631 H   0  0  0  0  0  0  0  0  0  0  0  0
   13.6817   37.4634   31.2270 H   0  0  0  0  0  0  0  0  0  0  0  0
    9.0036   37.3828   30.9349 H   0  0  0  0  0  0  0  0  0  0  0  0
   11.2846   36.3042   32.4930 H   0  0  0  0  0  0  0  0  0  0  0  0
   11.8849   36.9590   29.7589 H   0  0  0  0  0  0  0  0  0  0  0  0
   12.3366   38.3602   34.7441 H   0  0  0  0  0  0  0  0  0  0  0  0
   16.7576   34.1793   32.4623 H   0  0  0  0  0  0  0  0  0  0  0  0
   16.6362   34.5317   37.1418 H   0  0  0  0  0  0  0  0  0  0  0  0
   15.3529   35.7356   37.5141 H   0  0  0  0  0  0  0  0  0  0  0  0
  1  2  2  0
  1  3  1  0
  3  4  1  0
  4  5  1  0
  6  1  1  0
  7  6  1  0
  6  8  1  0
  8  9  1  0
  9 10  1  0
  9 11  2  0
 10 12  1  0
 12 13  1  0
 13 14  2  0
 15 13  1  0
 14 16  1  0
 14 17  1  0
 18 15  2  0
 16 19  1  0
 16 20  2  0
 17 21  2  0
 21 18  1  0
  4 22  2  0
  4 23  1  0
 24 23  1  0
 24 25  1  0
 25 26  1  0
 25 27  1  0
 26 28  1  0
 27 29  1  0
 27 30  1  0
 30 28  1  0
 28 31  1  0
 30 32  1  0
 33 31  1  0
 34 31  1  0
 35 33  2  0
 33 36  1  0
 37 34  2  0
 38 35  1  0
 36 39  2  0
 36 37  1  0
 40 38  2  0
 40 39  1  0
 39 41  1  0
  6 42  1  6
  7 43  1  0
  7 44  1  0
  8 45  1  0
  8 46  1  0
 12 47  1  0
 12 48  1  0
 15 49  1  0
 17 50  1  0
 18 51  1  0
 21 52  1  0
 24 53  1  0
 24 54  1  0
 25 55  1  0
 27 56  1  0
 28 57  1  0
 29 58  1  0
 30 59  1  0
 32 60  1  0
 34 61  1  0
 38 62  1  0
 41 63  1  0
 41 64  1  0
M  CHG  3   5  -1  16   1  19  -1
M  END
>  <EmbedRMS>  (235) 
0.08782199524577279

$$$$

     RDKit          3D

 64 67  0  0  0  0  0  0  0  0999 V2000
   10.2853   43.7723   33.8061 C   0  0  0  0  0  0  0  0  0  0  0  0
   11.4107   43.5875   34.3561 O   0  0  0  0  0  0  0  0  0  0  0  0
    9.3667   42.7312   33.7008 O   0  0  0  0  0  0  0  0  0  0  0  0
    9.8853   41.2342   34.2844 P   0  0  0  0  0  5  0  0  0  0  0  0
   10.3661   41.4700   35.8748 O   0  0  0  0  0  1  0  0  0  0  0  0
    9.9584   45.1107   33.2441 C   0  0  2  0  0  0  0  0  0  0  0  0
   11.0671   46.0362   33.4857 N   0  0  0  0  0  0  0  0  0  0  0  0
    8.6196   45.6590   33.7884 C   0  0  0  0  0  0  0  0  0  0  0  0
    8.5692   45.7261   35.2875 C   0  0  0  0  0  0  0  0  0  0  0  0
    9.0047   46.8806   35.9441 O   0  0  0  0  0  0  0  0  0  0  0  0
    8.1479   44.7348   35.9442 O   0  0  0  0  0  0  0  0  0  0  0  0
    8.9112   47.0412   37.3557 C   0  0  0  0  0  0  0  0  0  0  0  0
    9.4820   48.3796   37.7467 C   0  0  0  0  0  0  0  0  0  0  0  0
   10.8527   48.5577   38.0795 C   0  0  0  0  0  0  0  0  0  0  0  0
    8.6185   49.4898   37.7724 C   0  0  0  0  0  0  0  0  0  0  0  0
   11.8007   47.4763   38.0213 N   0  0  0  0  0  4  0  0  0  0  0  0
   11.2978   49.8292   38.4848 C   0  0  0  0  0  0  0  0  0  0  0  0
    9.0853   50.7467   38.1602 C   0  0  0  0  0  0  0  0  0  0  0  0
   12.8810   47.4638   38.8741 O   0  0  0  0  0  1  0  0  0  0  0  0
   11.7626   46.6460   37.0902 O   0  0  0  0  0  0  0  0  0  0  0  0
   10.4205   50.9144   38.5231 C   0  0  0  0  0  0  0  0  0  0  0  0
    8.8078   40.1912   34.2090 O   0  0  0  0  0  0  0  0  0  0  0  0
   11.2370   40.7899   33.3684 O   0  0  0  0  0  0  0  0  0  0  0  0
   10.9156   40.6888   31.9953 C   0  0  0  0  0  0  0  0  0  0  0  0
   11.5251   39.3873   31.4364 C   0  0  0  0  0  0  0  0  0  0  0  0
   12.7485   39.0879   32.0803 O   0  0  0  0  0  0  0  0  0  0  0  0
   10.6100   38.1911   31.6470 C   0  0  0  0  0  0  0  0  0  0  0  0
   12.9347   37.6807   32.0293 C   0  0  0  0  0  0  0  0  0  0  0  0
    9.6125   38.0875   30.6548 O   0  0  0  0  0  0  0  0  0  0  0  0
   11.5765   37.0134   31.7025 C   0  0  0  0  0  0  0  0  0  0  0  0
   13.4900   37.2164   33.3237 N   0  0  0  0  0  0  0  0  0  0  0  0
   11.6320   36.3231   30.4741 O   0  0  0  0  0  0  0  0  0  0  0  0
   14.4761   36.3265   33.5728 C   0  0  0  0  0  0  0  0  0  0  0  0
   13.1180   37.6308   34.5689 C   0  0  0  0  0  0  0  0  0  0  0  0
   15.2065   35.6135   32.6739 N   0  0  0  0  0  0  0  0  0  0  0  0
   14.6735   36.2272   34.9182 C   0  0  0  0  0  0  0  0  0  0  0  0
   13.8229   37.0454   35.5783 N   0  0  0  0  0  0  0  0  0  0  0  0
   16.1641   34.7595   33.1547 C   0  0  0  0  0  0  0  0  0  0  0  0
   15.6518   35.3492   35.4131 C   0  0  0  0  0  0  0  0  0  0  0  0
   16.3795   34.6311   34.5042 N   0  0  0  0  0  0  0  0  0  0  0  0
   15.9005   35.1935   36.8090 N   0  0  0  0  0  0  0  0  0  0  0  0
    9.8505   44.9846   32.1444 H   0  0  0  0  0  0  0  0  0  0  0  0
   11.1423   46.2456   34.5067 H   0  0  0  0  0  0  0  0  0  0  0  0
   10.8629   46.9387   32.9979 H   0  0  0  0  0  0  0  0  0  0  0  0
    7.7874   45.0158   33.4270 H   0  0  0  0  0  0  0  0  0  0  0  0
    8.4412   46.6750   33.3753 H   0  0  0  0  0  0  0  0  0  0  0  0
    9.4407   46.2156   37.8772 H   0  0  0  0  0  0  0  0  0  0  0  0
    7.8434   46.9784   37.6619 H   0  0  0  0  0  0  0  0  0  0  0  0
    7.5752   49.3796   37.5013 H   0  0  0  0  0  0  0  0  0  0  0  0
   12.3355   49.9868   38.7512 H   0  0  0  0  0  0  0  0  0  0  0  0
    8.4085   51.5915   38.1836 H   0  0  0  0  0  0  0  0  0  0  0  0
   10.7795   51.8898   38.8269 H   0  0  0  0  0  0  0  0  0  0  0  0
    9.8254   40.7198   31.7584 H   0  0  0  0  0  0  0  0  0  0  0  0
   11.3836   41.5508   31.4735 H   0  0  0  0  0  0  0  0  0  0  0  0
   11.7271   39.5288   30.3501 H   0  0  0  0  0  0  0  0  0  0  0  0
   10.1124   38.2738   32.6390 H   0  0  0  0  0  0  0  0  0  0  0  0
   13.6685   37.4590   31.2226 H   0  0  0  0  0  0  0  0  0  0  0  0
   10.0512   38.1111   29.7649 H   0  0  0  0  0  0  0  0  0  0  0  0
   11.2794   36.3132   32.5195 H   0  0  0  0  0  0  0  0  0  0  0  0
   10.8625   35.6959   30.4646 H   0  0  0  0  0  0  0  0  0  0  0  0
   12.3360   38.3586   34.7445 H   0  0  0  0  0  0  0  0  0  0  0  0
   16.7583   34.1796   32.4620 H   0  0  0  0  0  0  0  0  0  0  0  0
   16.6364   34.5318   37.1415 H   0  0  0  0  0  0  0  0  0  0  0  0
   15.3534   35.7358   37.5140 H   0  0  0  0  0  0  0  0  0  0  0  0
  1  2  2  0
  1  3  1  0
  3  4  1  0
  4  5  1  0
  6  1  1  0
  7  6  1  0
  6  8  1  0
  8  9  1  0
  9 10  1  0
  9 11  2  0
 10 12  1  0
 12 13  1  0
 13 14  2  0
 15 13  1  0
 14 16  1  0
 14 17  1  0
 18 15  2  0
 16 19  1  0
 16 20  2  0
 17 21  2  0
 21 18  1  0
  4 22  2  0
  4 23  1  0
 24 23  1  0
 24 25  1  0
 25 26  1  0
 25 27  1  0
 26 28  1  0
 27 29  1  0
 27 30  1  0
 30 28  1  0
 28 31  1  0
 30 32  1  0
 33 31  1  0
 34 31  1  0
 35 33  2  0
 33 36  1  0
 37 34  2  0
 38 35  1  0
 36 39  2  0
 36 37  1  0
 40 38  2  0
 40 39  1  0
 39 41  1  0
  6 42  1  6
  7 43  1  0
  7 44  1  0
  8 45  1  0
  8 46  1  0
 12 47  1  0
 12 48  1  0
 15 49  1  0
 17 50  1  0
 18 51  1  0
 21 52  1  0
 24 53  1  0
 24 54  1  0
 25 55  1  0
 27 56  1  0
 28 57  1  0
 29 58  1  0
 30 59  1  0
 32 60  1  0
 34 61  1  0
 38 62  1  0
 41 63  1  0
 41 64  1  0
M  CHG  3   5  -1  16   1  19  -1
M  END
>  <EmbedRMS>  (236) 
0.0879770826466516

$$$$

     RDKit          3D

 64 67  0  0  0  0  0  0  0  0999 V2000
   10.2860   43.7720   33.8048 C   0  0  0  0  0  0  0  0  0  0  0  0
   11.4085   43.5885   34.3612 O   0  0  0  0  0  0  0  0  0  0  0  0
    9.3675   42.7309   33.6994 O   0  0  0  0  0  0  0  0  0  0  0  0
    9.8854   41.2341   34.2843 P   0  0  0  0  0  5  0  0  0  0  0  0
   10.3651   41.4701   35.8750 O   0  0  0  0  0  1  0  0  0  0  0  0
    9.9530   45.1147   33.2533 C   0  0  2  0  0  0  0  0  0  0  0  0
   11.0713   46.0332   33.4764 N   0  0  0  0  0  0  0  0  0  0  0  0
    8.6603   45.6659   33.8883 C   0  0  0  0  0  0  0  0  0  0  0  0
    8.7938   45.8694   35.3683 C   0  0  0  0  0  0  0  0  0  0  0  0
    9.3566   47.0572   35.8514 O   0  0  0  0  0  0  0  0  0  0  0  0
    8.4230   44.9610   36.1612 O   0  0  0  0  0  0  0  0  0  0  0  0
    9.5618   47.3253   37.2395 C   0  0  0  0  0  0  0  0  0  0  0  0
    8.3833   48.0291   37.8862 C   0  0  0  0  0  0  0  0  0  0  0  0
    8.5295   48.6815   39.1415 C   0  0  0  0  0  0  0  0  0  0  0  0
    7.1251   48.0600   37.2475 C   0  0  0  0  0  0  0  0  0  0  0  0
    9.7745   48.6637   39.8646 N   0  0  0  0  0  4  0  0  0  0  0  0
    7.4345   49.3731   39.6911 C   0  0  0  0  0  0  0  0  0  0  0  0
    6.0488   48.7389   37.8200 C   0  0  0  0  0  0  0  0  0  0  0  0
   10.5289   47.5157   39.9348 O   0  0  0  0  0  1  0  0  0  0  0  0
   10.0982   49.6373   40.5761 O   0  0  0  0  0  0  0  0  0  0  0  0
    6.2043   49.3985   39.0358 C   0  0  0  0  0  0  0  0  0  0  0  0
    8.8081   40.1911   34.2080 O   0  0  0  0  0  0  0  0  0  0  0  0
   11.2382   40.7905   33.3697 O   0  0  0  0  0  0  0  0  0  0  0  0
   10.9190   40.6905   31.9961 C   0  0  0  0  0  0  0  0  0  0  0  0
   11.5176   39.3824   31.4412 C   0  0  0  0  0  0  0  0  0  0  0  0
   12.7495   39.0892   32.0755 O   0  0  0  0  0  0  0  0  0  0  0  0
   10.6036   38.1899   31.6660 C   0  0  0  0  0  0  0  0  0  0  0  0
   12.9401   37.6833   32.0276 C   0  0  0  0  0  0  0  0  0  0  0  0
    9.6376   38.0785   30.6475 O   0  0  0  0  0  0  0  0  0  0  0  0
   11.5804   37.0203   31.6937 C   0  0  0  0  0  0  0  0  0  0  0  0
   13.4902   37.2177   33.3237 N   0  0  0  0  0  0  0  0  0  0  0  0
   11.6118   36.3193   30.4680 O   0  0  0  0  0  0  0  0  0  0  0  0
   14.4759   36.3271   33.5731 C   0  0  0  0  0  0  0  0  0  0  0  0
   13.1176   37.6317   34.5688 C   0  0  0  0  0  0  0  0  0  0  0  0
   15.2064   35.6142   32.6742 N   0  0  0  0  0  0  0  0  0  0  0  0
   14.6729   36.2274   34.9184 C   0  0  0  0  0  0  0  0  0  0  0  0
   13.8221   37.0457   35.5783 N   0  0  0  0  0  0  0  0  0  0  0  0
   16.1637   34.7597   33.1549 C   0  0  0  0  0  0  0  0  0  0  0  0
   15.6514   35.3493   35.4133 C   0  0  0  0  0  0  0  0  0  0  0  0
   16.3791   34.6312   34.5044 N   0  0  0  0  0  0  0  0  0  0  0  0
   15.9001   35.1934   36.8091 N   0  0  0  0  0  0  0  0  0  0  0  0
    9.7836   45.0048   32.1585 H   0  0  0  0  0  0  0  0  0  0  0  0
   10.8101   46.9715   33.0945 H   0  0  0  0  0  0  0  0  0  0  0  0
   11.8828   45.7123   32.8983 H   0  0  0  0  0  0  0  0  0  0  0  0
    7.8144   44.9740   33.6819 H   0  0  0  0  0  0  0  0  0  0  0  0
    8.4028   46.6380   33.4152 H   0  0  0  0  0  0  0  0  0  0  0  0
    9.7871   46.3825   37.7826 H   0  0  0  0  0  0  0  0  0  0  0  0
   10.4530   47.9831   37.3175 H   0  0  0  0  0  0  0  0  0  0  0  0
    6.9635   47.5738   36.2966 H   0  0  0  0  0  0  0  0  0  0  0  0
    7.5294   49.8804   40.6430 H   0  0  0  0  0  0  0  0  0  0  0  0
    5.0916   48.7580   37.3149 H   0  0  0  0  0  0  0  0  0  0  0  0
    5.3680   49.9272   39.4749 H   0  0  0  0  0  0  0  0  0  0  0  0
    9.8311   40.7397   31.7559 H   0  0  0  0  0  0  0  0  0  0  0  0
   11.4000   41.5454   31.4746 H   0  0  0  0  0  0  0  0  0  0  0  0
   11.6990   39.5091   30.3489 H   0  0  0  0  0  0  0  0  0  0  0  0
   10.1131   38.2589   32.6664 H   0  0  0  0  0  0  0  0  0  0  0  0
   13.6800   37.4627   31.2265 H   0  0  0  0  0  0  0  0  0  0  0  0
    8.8953   38.6909   30.8892 H   0  0  0  0  0  0  0  0  0  0  0  0
   11.2830   36.3060   32.4929 H   0  0  0  0  0  0  0  0  0  0  0  0
   11.8859   36.9589   29.7593 H   0  0  0  0  0  0  0  0  0  0  0  0
   12.3360   38.3600   34.7442 H   0  0  0  0  0  0  0  0  0  0  0  0
   16.7572   34.1793   32.4621 H   0  0  0  0  0  0  0  0  0  0  0  0
   15.3528   35.7356   37.5140 H   0  0  0  0  0  0  0  0  0  0  0  0
   16.6362   34.5318   37.1415 H   0  0  0  0  0  0  0  0  0  0  0  0
  1  2  2  0
  1  3  1  0
  3  4  1  0
  4  5  1  0
  6  1  1  0
  7  6  1  0
  6  8  1  0
  8  9  1  0
  9 10  1  0
  9 11  2  0
 10 12  1  0
 12 13  1  0
 13 14  2  0
 15 13  1  0
 14 16  1  0
 14 17  1  0
 18 15  2  0
 16 19  1  0
 16 20  2  0
 17 21  2  0
 21 18  1  0
  4 22  2  0
  4 23  1  0
 24 23  1  0
 24 25  1  0
 25 26  1  0
 25 27  1  0
 26 28  1  0
 27 29  1  0
 27 30  1  0
 30 28  1  0
 28 31  1  0
 30 32  1  0
 33 31  1  0
 34 31  1  0
 35 33  2  0
 33 36  1  0
 37 34  2  0
 38 35  1  0
 36 39  2  0
 36 37  1  0
 40 38  2  0
 40 39  1  0
 39 41  1  0
  6 42  1  6
  7 43  1  0
  7 44  1  0
  8 45  1  0
  8 46  1  0
 12 47  1  0
 12 48  1  0
 15 49  1  0
 17 50  1  0
 18 51  1  0
 21 52  1  0
 24 53  1  0
 24 54  1  0
 25 55  1  0
 27 56  1  0
 28 57  1  0
 29 58  1  0
 30 59  1  0
 32 60  1  0
 34 61  1  0
 38 62  1  0
 41 63  1  0
 41 64  1  0
M  CHG  3   5  -1  16   1  19  -1
M  END
>  <EmbedRMS>  (237) 
0.08833212273578309

$$$$

     RDKit          3D

 64 67  0  0  0  0  0  0  0  0999 V2000
   10.2862   43.7711   33.8098 C   0  0  0  0  0  0  0  0  0  0  0  0
   11.4100   43.5818   34.3615 O   0  0  0  0  0  0  0  0  0  0  0  0
    9.3668   42.7309   33.7017 O   0  0  0  0  0  0  0  0  0  0  0  0
    9.8850   41.2328   34.2832 P   0  0  0  0  0  5  0  0  0  0  0  0
   10.3662   41.4674   35.8737 O   0  0  0  0  0  1  0  0  0  0  0  0
    9.9607   45.1125   33.2474 C   0  0  2  0  0  0  0  0  0  0  0  0
   11.0655   46.0476   33.4749 N   0  0  0  0  0  0  0  0  0  0  0  0
    8.6648   45.6572   33.8717 C   0  0  0  0  0  0  0  0  0  0  0  0
    8.2768   46.9649   33.2547 C   0  0  0  0  0  0  0  0  0  0  0  0
    8.6066   48.1596   33.9051 O   0  0  0  0  0  0  0  0  0  0  0  0
    7.6883   46.9797   32.1389 O   0  0  0  0  0  0  0  0  0  0  0  0
    8.3405   49.4473   33.3497 C   0  0  0  0  0  0  0  0  0  0  0  0
    9.2505   49.7320   32.1742 C   0  0  0  0  0  0  0  0  0  0  0  0
    8.7900   50.3950   31.0070 C   0  0  0  0  0  0  0  0  0  0  0  0
   10.5981   49.3320   32.2468 C   0  0  0  0  0  0  0  0  0  0  0  0
    7.4604   50.9331   30.9211 N   0  0  0  0  0  4  0  0  0  0  0  0
    9.6640   50.5534   29.9165 C   0  0  0  0  0  0  0  0  0  0  0  0
   11.4554   49.5144   31.1610 C   0  0  0  0  0  0  0  0  0  0  0  0
    6.9476   51.6739   31.9609 O   0  0  0  0  0  1  0  0  0  0  0  0
    6.8494   50.9195   29.8325 O   0  0  0  0  0  0  0  0  0  0  0  0
   10.9857   50.1124   29.9932 C   0  0  0  0  0  0  0  0  0  0  0  0
    8.8071   40.1905   34.2076 O   0  0  0  0  0  0  0  0  0  0  0  0
   11.2367   40.7901   33.3660 O   0  0  0  0  0  0  0  0  0  0  0  0
   10.9141   40.6849   31.9931 C   0  0  0  0  0  0  0  0  0  0  0  0
   11.5165   39.3773   31.4393 C   0  0  0  0  0  0  0  0  0  0  0  0
   12.7471   39.0855   32.0739 O   0  0  0  0  0  0  0  0  0  0  0  0
   10.6047   38.1867   31.6669 C   0  0  0  0  0  0  0  0  0  0  0  0
   12.9345   37.6791   32.0282 C   0  0  0  0  0  0  0  0  0  0  0  0
    9.6378   38.0917   30.6488 O   0  0  0  0  0  0  0  0  0  0  0  0
   11.5761   37.0129   31.7056 C   0  0  0  0  0  0  0  0  0  0  0  0
   13.4909   37.2177   33.3233 N   0  0  0  0  0  0  0  0  0  0  0  0
   11.6234   36.3371   30.4684 O   0  0  0  0  0  0  0  0  0  0  0  0
   14.4765   36.3272   33.5727 C   0  0  0  0  0  0  0  0  0  0  0  0
   13.1182   37.6316   34.5685 C   0  0  0  0  0  0  0  0  0  0  0  0
   15.2066   35.6137   32.6739 N   0  0  0  0  0  0  0  0  0  0  0  0
   14.6736   36.2276   34.9182 C   0  0  0  0  0  0  0  0  0  0  0  0
   13.8227   37.0457   35.5781 N   0  0  0  0  0  0  0  0  0  0  0  0
   16.1638   34.7593   33.1548 C   0  0  0  0  0  0  0  0  0  0  0  0
   15.6517   35.3493   35.4131 C   0  0  0  0  0  0  0  0  0  0  0  0
   16.3792   34.6309   34.5043 N   0  0  0  0  0  0  0  0  0  0  0  0
   15.9003   35.1934   36.8090 N   0  0  0  0  0  0  0  0  0  0  0  0
    9.8102   44.9955   32.1511 H   0  0  0  0  0  0  0  0  0  0  0  0
   11.2756   46.1189   34.4980 H   0  0  0  0  0  0  0  0  0  0  0  0
   11.9217   45.7033   32.9814 H   0  0  0  0  0  0  0  0  0  0  0  0
    8.7969   45.7917   34.9677 H   0  0  0  0  0  0  0  0  0  0  0  0
    7.8351   44.9331   33.7166 H   0  0  0  0  0  0  0  0  0  0  0  0
    7.2688   49.4875   33.0644 H   0  0  0  0  0  0  0  0  0  0  0  0
    8.5188   50.2164   34.1297 H   0  0  0  0  0  0  0  0  0  0  0  0
   10.9845   48.8632   33.1429 H   0  0  0  0  0  0  0  0  0  0  0  0
    9.3273   51.0465   29.0132 H   0  0  0  0  0  0  0  0  0  0  0  0
   12.4853   49.1876   31.2245 H   0  0  0  0  0  0  0  0  0  0  0  0
   11.6517   50.2503   29.1512 H   0  0  0  0  0  0  0  0  0  0  0  0
    9.8242   40.7213   31.7563 H   0  0  0  0  0  0  0  0  0  0  0  0
   11.3872   41.5415   31.4671 H   0  0  0  0  0  0  0  0  0  0  0  0
   11.6986   39.5012   30.3467 H   0  0  0  0  0  0  0  0  0  0  0  0
   10.1095   38.2770   32.6628 H   0  0  0  0  0  0  0  0  0  0  0  0
   13.6672   37.4545   31.2213 H   0  0  0  0  0  0  0  0  0  0  0  0
    8.9779   37.4156   30.9533 H   0  0  0  0  0  0  0  0  0  0  0  0
   11.2861   36.3041   32.5177 H   0  0  0  0  0  0  0  0  0  0  0  0
   10.8690   35.6918   30.4657 H   0  0  0  0  0  0  0  0  0  0  0  0
   12.3356   38.3587   34.7439 H   0  0  0  0  0  0  0  0  0  0  0  0
   16.7572   34.1786   32.4621 H   0  0  0  0  0  0  0  0  0  0  0  0
   16.6361   34.5315   37.1415 H   0  0  0  0  0  0  0  0  0  0  0  0
   15.3530   35.7358   37.5138 H   0  0  0  0  0  0  0  0  0  0  0  0
  1  2  2  0
  1  3  1  0
  3  4  1  0
  4  5  1  0
  6  1  1  0
  7  6  1  0
  6  8  1  0
  8  9  1  0
  9 10  1  0
  9 11  2  0
 10 12  1  0
 12 13  1  0
 13 14  2  0
 15 13  1  0
 14 16  1  0
 14 17  1  0
 18 15  2  0
 16 19  1  0
 16 20  2  0
 17 21  2  0
 21 18  1  0
  4 22  2  0
  4 23  1  0
 24 23  1  0
 24 25  1  0
 25 26  1  0
 25 27  1  0
 26 28  1  0
 27 29  1  0
 27 30  1  0
 30 28  1  0
 28 31  1  0
 30 32  1  0
 33 31  1  0
 34 31  1  0
 35 33  2  0
 33 36  1  0
 37 34  2  0
 38 35  1  0
 36 39  2  0
 36 37  1  0
 40 38  2  0
 40 39  1  0
 39 41  1  0
  6 42  1  6
  7 43  1  0
  7 44  1  0
  8 45  1  0
  8 46  1  0
 12 47  1  0
 12 48  1  0
 15 49  1  0
 17 50  1  0
 18 51  1  0
 21 52  1  0
 24 53  1  0
 24 54  1  0
 25 55  1  0
 27 56  1  0
 28 57  1  0
 29 58  1  0
 30 59  1  0
 32 60  1  0
 34 61  1  0
 38 62  1  0
 41 63  1  0
 41 64  1  0
M  CHG  3   5  -1  16   1  19  -1
M  END
>  <EmbedRMS>  (238) 
0.08950197704188592

$$$$

     RDKit          3D

 64 67  0  0  0  0  0  0  0  0999 V2000
   10.2809   43.7767   33.8096 C   0  0  0  0  0  0  0  0  0  0  0  0
   11.4068   43.5931   34.3594 O   0  0  0  0  0  0  0  0  0  0  0  0
    9.3732   42.7277   33.6938 O   0  0  0  0  0  0  0  0  0  0  0  0
    9.8873   41.2330   34.2838 P   0  0  0  0  0  5  0  0  0  0  0  0
   10.3650   41.4710   35.8746 O   0  0  0  0  0  1  0  0  0  0  0  0
    9.9460   45.1211   33.2559 C   0  0  2  0  0  0  0  0  0  0  0  0
   11.0769   46.0246   33.4758 N   0  0  0  0  0  0  0  0  0  0  0  0
    8.6624   45.7027   33.8934 C   0  0  0  0  0  0  0  0  0  0  0  0
    7.4320   44.9802   33.4361 C   0  0  0  0  0  0  0  0  0  0  0  0
    6.9586   43.8982   34.1820 O   0  0  0  0  0  0  0  0  0  0  0  0
    6.8677   45.3177   32.3598 O   0  0  0  0  0  0  0  0  0  0  0  0
    5.9057   43.0471   33.7381 C   0  0  0  0  0  0  0  0  0  0  0  0
    5.8203   41.8126   34.6069 C   0  0  0  0  0  0  0  0  0  0  0  0
    5.3694   40.5697   34.0889 C   0  0  0  0  0  0  0  0  0  0  0  0
    6.1992   41.8907   35.9620 C   0  0  0  0  0  0  0  0  0  0  0  0
    4.8766   40.4477   32.7434 N   0  0  0  0  0  4  0  0  0  0  0  0
    5.3944   39.4309   34.9143 C   0  0  0  0  0  0  0  0  0  0  0  0
    6.2002   40.7522   36.7687 C   0  0  0  0  0  0  0  0  0  0  0  0
    4.0411   41.4074   32.2198 O   0  0  0  0  0  1  0  0  0  0  0  0
    5.0482   39.3874   32.1069 O   0  0  0  0  0  0  0  0  0  0  0  0
    5.8103   39.5226   36.2428 C   0  0  0  0  0  0  0  0  0  0  0  0
    8.8090   40.1909   34.2079 O   0  0  0  0  0  0  0  0  0  0  0  0
   11.2383   40.7878   33.3686 O   0  0  0  0  0  0  0  0  0  0  0  0
   10.9159   40.6876   31.9956 C   0  0  0  0  0  0  0  0  0  0  0  0
   11.5260   39.3869   31.4364 C   0  0  0  0  0  0  0  0  0  0  0  0
   12.7493   39.0890   32.0814 O   0  0  0  0  0  0  0  0  0  0  0  0
   10.6121   38.1893   31.6463 C   0  0  0  0  0  0  0  0  0  0  0  0
   12.9372   37.6824   32.0300 C   0  0  0  0  0  0  0  0  0  0  0  0
    9.6146   38.0839   30.6541 O   0  0  0  0  0  0  0  0  0  0  0  0
   11.5790   37.0136   31.7014 C   0  0  0  0  0  0  0  0  0  0  0  0
   13.4905   37.2169   33.3242 N   0  0  0  0  0  0  0  0  0  0  0  0
   11.6213   36.3252   30.4725 O   0  0  0  0  0  0  0  0  0  0  0  0
   14.4763   36.3266   33.5731 C   0  0  0  0  0  0  0  0  0  0  0  0
   13.1180   37.6308   34.5694 C   0  0  0  0  0  0  0  0  0  0  0  0
   15.2065   35.6137   32.6740 N   0  0  0  0  0  0  0  0  0  0  0  0
   14.6735   36.2270   34.9185 C   0  0  0  0  0  0  0  0  0  0  0  0
   13.8228   37.0451   35.5787 N   0  0  0  0  0  0  0  0  0  0  0  0
   16.1639   34.7593   33.1547 C   0  0  0  0  0  0  0  0  0  0  0  0
   15.6518   35.3489   35.4132 C   0  0  0  0  0  0  0  0  0  0  0  0
   16.3794   34.6308   34.5042 N   0  0  0  0  0  0  0  0  0  0  0  0
   15.9006   35.1931   36.8090 N   0  0  0  0  0  0  0  0  0  0  0  0
    9.7942   45.0112   32.1588 H   0  0  0  0  0  0  0  0  0  0  0  0
   10.9086   46.9075   32.9404 H   0  0  0  0  0  0  0  0  0  0  0  0
   11.1297   46.2820   34.4894 H   0  0  0  0  0  0  0  0  0  0  0  0
    8.5617   46.7745   33.6153 H   0  0  0  0  0  0  0  0  0  0  0  0
    8.7295   45.6525   35.0024 H   0  0  0  0  0  0  0  0  0  0  0  0
    6.1205   42.7519   32.6885 H   0  0  0  0  0  0  0  0  0  0  0  0
    4.9412   43.5964   33.7769 H   0  0  0  0  0  0  0  0  0  0  0  0
    6.5134   42.8315   36.3962 H   0  0  0  0  0  0  0  0  0  0  0  0
    5.0670   38.4717   34.5335 H   0  0  0  0  0  0  0  0  0  0  0  0
    6.5094   40.8233   37.8036 H   0  0  0  0  0  0  0  0  0  0  0  0
    5.8161   38.6404   36.8699 H   0  0  0  0  0  0  0  0  0  0  0  0
   11.3832   41.5501   31.4739 H   0  0  0  0  0  0  0  0  0  0  0  0
    9.8255   40.7177   31.7589 H   0  0  0  0  0  0  0  0  0  0  0  0
   11.7286   39.5288   30.3502 H   0  0  0  0  0  0  0  0  0  0  0  0
   10.1137   38.2719   32.6381 H   0  0  0  0  0  0  0  0  0  0  0  0
   13.6723   37.4630   31.2239 H   0  0  0  0  0  0  0  0  0  0  0  0
   10.0530   38.1086   29.7641 H   0  0  0  0  0  0  0  0  0  0  0  0
   11.2643   36.3134   32.5108 H   0  0  0  0  0  0  0  0  0  0  0  0
   12.1542   35.5030   30.6316 H   0  0  0  0  0  0  0  0  0  0  0  0
   12.3360   38.3585   34.7449 H   0  0  0  0  0  0  0  0  0  0  0  0
   16.7573   34.1788   32.4619 H   0  0  0  0  0  0  0  0  0  0  0  0
   15.3533   35.7353   37.5139 H   0  0  0  0  0  0  0  0  0  0  0  0
   16.6366   34.5314   37.1415 H   0  0  0  0  0  0  0  0  0  0  0  0
  1  2  2  0
  1  3  1  0
  3  4  1  0
  4  5  1  0
  6  1  1  0
  7  6  1  0
  6  8  1  0
  8  9  1  0
  9 10  1  0
  9 11  2  0
 10 12  1  0
 12 13  1  0
 13 14  2  0
 15 13  1  0
 14 16  1  0
 14 17  1  0
 18 15  2  0
 16 19  1  0
 16 20  2  0
 17 21  2  0
 21 18  1  0
  4 22  2  0
  4 23  1  0
 24 23  1  0
 24 25  1  0
 25 26  1  0
 25 27  1  0
 26 28  1  0
 27 29  1  0
 27 30  1  0
 30 28  1  0
 28 31  1  0
 30 32  1  0
 33 31  1  0
 34 31  1  0
 35 33  2  0
 33 36  1  0
 37 34  2  0
 38 35  1  0
 36 39  2  0
 36 37  1  0
 40 38  2  0
 40 39  1  0
 39 41  1  0
  6 42  1  6
  7 43  1  0
  7 44  1  0
  8 45  1  0
  8 46  1  0
 12 47  1  0
 12 48  1  0
 15 49  1  0
 17 50  1  0
 18 51  1  0
 21 52  1  0
 24 53  1  0
 24 54  1  0
 25 55  1  0
 27 56  1  0
 28 57  1  0
 29 58  1  0
 30 59  1  0
 32 60  1  0
 34 61  1  0
 38 62  1  0
 41 63  1  0
 41 64  1  0
M  CHG  3   5  -1  16   1  19  -1
M  END
>  <EmbedRMS>  (239) 
0.08840651754203431

$$$$

     RDKit          3D

 64 67  0  0  0  0  0  0  0  0999 V2000
   10.2892   43.7674   33.8054 C   0  0  0  0  0  0  0  0  0  0  0  0
   11.4124   43.5782   34.3581 O   0  0  0  0  0  0  0  0  0  0  0  0
    9.3670   42.7301   33.7002 O   0  0  0  0  0  0  0  0  0  0  0  0
    9.8841   41.2328   34.2836 P   0  0  0  0  0  5  0  0  0  0  0  0
   10.3652   41.4683   35.8736 O   0  0  0  0  0  1  0  0  0  0  0  0
    9.9615   45.1138   33.2527 C   0  0  2  0  0  0  0  0  0  0  0  0
   11.0622   46.0532   33.4754 N   0  0  0  0  0  0  0  0  0  0  0  0
    8.6454   45.6758   33.8290 C   0  0  0  0  0  0  0  0  0  0  0  0
    8.5607   45.5737   35.3255 C   0  0  0  0  0  0  0  0  0  0  0  0
    9.3060   46.4435   36.1303 O   0  0  0  0  0  0  0  0  0  0  0  0
    7.8311   44.6857   35.8459 O   0  0  0  0  0  0  0  0  0  0  0  0
    9.3128   46.3664   37.5551 C   0  0  0  0  0  0  0  0  0  0  0  0
   10.0334   45.1197   38.0212 C   0  0  0  0  0  0  0  0  0  0  0  0
   11.4041   44.8690   37.7263 C   0  0  0  0  0  0  0  0  0  0  0  0
    9.2931   44.1449   38.7166 C   0  0  0  0  0  0  0  0  0  0  0  0
   12.2309   45.8174   37.0239 N   0  0  0  0  0  4  0  0  0  0  0  0
   11.9725   43.6435   38.1204 C   0  0  0  0  0  0  0  0  0  0  0  0
    9.8838   42.9441   39.1092 C   0  0  0  0  0  0  0  0  0  0  0  0
   13.3223   45.3790   36.3091 O   0  0  0  0  0  1  0  0  0  0  0  0
   12.0725   47.0455   37.1739 O   0  0  0  0  0  0  0  0  0  0  0  0
   11.2198   42.6928   38.8095 C   0  0  0  0  0  0  0  0  0  0  0  0
    8.8062   40.1905   34.2084 O   0  0  0  0  0  0  0  0  0  0  0  0
   11.2359   40.7893   33.3667 O   0  0  0  0  0  0  0  0  0  0  0  0
   10.9133   40.6842   31.9937 C   0  0  0  0  0  0  0  0  0  0  0  0
   11.5174   39.3774   31.4396 C   0  0  0  0  0  0  0  0  0  0  0  0
   12.7477   39.0870   32.0757 O   0  0  0  0  0  0  0  0  0  0  0  0
   10.6069   38.1851   31.6657 C   0  0  0  0  0  0  0  0  0  0  0  0
   12.9372   37.6812   32.0290 C   0  0  0  0  0  0  0  0  0  0  0  0
    9.6404   38.0882   30.6476 O   0  0  0  0  0  0  0  0  0  0  0  0
   11.5789   37.0134   31.7045 C   0  0  0  0  0  0  0  0  0  0  0  0
   13.4915   37.2183   33.3239 N   0  0  0  0  0  0  0  0  0  0  0  0
   11.6125   36.3389   30.4674 O   0  0  0  0  0  0  0  0  0  0  0  0
   14.4765   36.3272   33.5731 C   0  0  0  0  0  0  0  0  0  0  0  0
   13.1185   37.6319   34.5691 C   0  0  0  0  0  0  0  0  0  0  0  0
   15.2066   35.6139   32.6741 N   0  0  0  0  0  0  0  0  0  0  0  0
   14.6735   36.2274   34.9184 C   0  0  0  0  0  0  0  0  0  0  0  0
   13.8228   37.0457   35.5785 N   0  0  0  0  0  0  0  0  0  0  0  0
   16.1637   34.7593   33.1548 C   0  0  0  0  0  0  0  0  0  0  0  0
   15.6516   35.3491   35.4132 C   0  0  0  0  0  0  0  0  0  0  0  0
   16.3792   34.6308   34.5043 N   0  0  0  0  0  0  0  0  0  0  0  0
   15.9003   35.1933   36.8091 N   0  0  0  0  0  0  0  0  0  0  0  0
    9.8244   45.0015   32.1546 H   0  0  0  0  0  0  0  0  0  0  0  0
   11.9128   45.7161   32.9673 H   0  0  0  0  0  0  0  0  0  0  0  0
   11.2929   46.1101   34.4924 H   0  0  0  0  0  0  0  0  0  0  0  0
    8.5348   46.7411   33.5326 H   0  0  0  0  0  0  0  0  0  0  0  0
    7.7905   45.1245   33.3786 H   0  0  0  0  0  0  0  0  0  0  0  0
    8.2645   46.3954   37.9258 H   0  0  0  0  0  0  0  0  0  0  0  0
    9.8022   47.2675   37.9751 H   0  0  0  0  0  0  0  0  0  0  0  0
    8.2472   44.3069   38.9463 H   0  0  0  0  0  0  0  0  0  0  0  0
   13.0111   43.4263   37.9058 H   0  0  0  0  0  0  0  0  0  0  0  0
    9.3007   42.2027   39.6403 H   0  0  0  0  0  0  0  0  0  0  0  0
   11.6742   41.7576   39.1104 H   0  0  0  0  0  0  0  0  0  0  0  0
   11.3852   41.5415   31.4679 H   0  0  0  0  0  0  0  0  0  0  0  0
    9.8233   40.7189   31.7571 H   0  0  0  0  0  0  0  0  0  0  0  0
   11.7005   39.5021   30.3473 H   0  0  0  0  0  0  0  0  0  0  0  0
   10.1097   38.2750   32.6606 H   0  0  0  0  0  0  0  0  0  0  0  0
   13.6713   37.4593   31.2228 H   0  0  0  0  0  0  0  0  0  0  0  0
    9.0033   37.3835   30.9351 H   0  0  0  0  0  0  0  0  0  0  0  0
   11.2706   36.3048   32.5088 H   0  0  0  0  0  0  0  0  0  0  0  0
   12.1444   35.5137   30.6141 H   0  0  0  0  0  0  0  0  0  0  0  0
   12.3364   38.3596   34.7445 H   0  0  0  0  0  0  0  0  0  0  0  0
   16.7570   34.1786   32.4621 H   0  0  0  0  0  0  0  0  0  0  0  0
   15.3531   35.7357   37.5139 H   0  0  0  0  0  0  0  0  0  0  0  0
   16.6362   34.5315   37.1416 H   0  0  0  0  0  0  0  0  0  0  0  0
  1  2  2  0
  1  3  1  0
  3  4  1  0
  4  5  1  0
  6  1  1  0
  7  6  1  0
  6  8  1  0
  8  9  1  0
  9 10  1  0
  9 11  2  0
 10 12  1  0
 12 13  1  0
 13 14  2  0
 15 13  1  0
 14 16  1  0
 14 17  1  0
 18 15  2  0
 16 19  1  0
 16 20  2  0
 17 21  2  0
 21 18  1  0
  4 22  2  0
  4 23  1  0
 24 23  1  0
 24 25  1  0
 25 26  1  0
 25 27  1  0
 26 28  1  0
 27 29  1  0
 27 30  1  0
 30 28  1  0
 28 31  1  0
 30 32  1  0
 33 31  1  0
 34 31  1  0
 35 33  2  0
 33 36  1  0
 37 34  2  0
 38 35  1  0
 36 39  2  0
 36 37  1  0
 40 38  2  0
 40 39  1  0
 39 41  1  0
  6 42  1  6
  7 43  1  0
  7 44  1  0
  8 45  1  0
  8 46  1  0
 12 47  1  0
 12 48  1  0
 15 49  1  0
 17 50  1  0
 18 51  1  0
 21 52  1  0
 24 53  1  0
 24 54  1  0
 25 55  1  0
 27 56  1  0
 28 57  1  0
 29 58  1  0
 30 59  1  0
 32 60  1  0
 34 61  1  0
 38 62  1  0
 41 63  1  0
 41 64  1  0
M  CHG  3   5  -1  16   1  19  -1
M  END
>  <EmbedRMS>  (240) 
0.08944268155358279

$$$$

     RDKit          3D

 64 67  0  0  0  0  0  0  0  0999 V2000
   10.2873   43.7709   33.8024 C   0  0  0  0  0  0  0  0  0  0  0  0
   11.4095   43.5876   34.3597 O   0  0  0  0  0  0  0  0  0  0  0  0
    9.3681   42.7303   33.6984 O   0  0  0  0  0  0  0  0  0  0  0  0
    9.8856   41.2340   34.2845 P   0  0  0  0  0  5  0  0  0  0  0  0
   10.3650   41.4707   35.8752 O   0  0  0  0  0  1  0  0  0  0  0  0
    9.9520   45.1153   33.2559 C   0  0  2  0  0  0  0  0  0  0  0  0
   11.0708   46.0332   33.4780 N   0  0  0  0  0  0  0  0  0  0  0  0
    8.6624   45.6644   33.8996 C   0  0  0  0  0  0  0  0  0  0  0  0
    8.7956   45.8345   35.3839 C   0  0  0  0  0  0  0  0  0  0  0  0
    8.5596   44.7397   36.2237 O   0  0  0  0  0  0  0  0  0  0  0  0
    9.1540   46.9467   35.8591 O   0  0  0  0  0  0  0  0  0  0  0  0
    8.6932   44.7997   37.6432 C   0  0  0  0  0  0  0  0  0  0  0  0
    7.5875   45.6196   38.2749 C   0  0  0  0  0  0  0  0  0  0  0  0
    7.7965   46.3628   39.4674 C   0  0  0  0  0  0  0  0  0  0  0  0
    6.3099   45.6259   37.6816 C   0  0  0  0  0  0  0  0  0  0  0  0
    9.0407   46.3114   40.1861 N   0  0  0  0  0  4  0  0  0  0  0  0
    6.7543   47.1600   39.9718 C   0  0  0  0  0  0  0  0  0  0  0  0
    5.2824   46.4081   38.2101 C   0  0  0  0  0  0  0  0  0  0  0  0
    9.4788   47.4167   40.8791 O   0  0  0  0  0  1  0  0  0  0  0  0
    9.6214   45.2208   40.3648 O   0  0  0  0  0  0  0  0  0  0  0  0
    5.5078   47.1833   39.3456 C   0  0  0  0  0  0  0  0  0  0  0  0
    8.8082   40.1910   34.2083 O   0  0  0  0  0  0  0  0  0  0  0  0
   11.2383   40.7902   33.3698 O   0  0  0  0  0  0  0  0  0  0  0  0
   10.9189   40.6904   31.9962 C   0  0  0  0  0  0  0  0  0  0  0  0
   11.5176   39.3824   31.4411 C   0  0  0  0  0  0  0  0  0  0  0  0
   12.7494   39.0891   32.0756 O   0  0  0  0  0  0  0  0  0  0  0  0
   10.6035   38.1901   31.6659 C   0  0  0  0  0  0  0  0  0  0  0  0
   12.9399   37.6833   32.0275 C   0  0  0  0  0  0  0  0  0  0  0  0
    9.6374   38.0788   30.6475 O   0  0  0  0  0  0  0  0  0  0  0  0
   11.5801   37.0204   31.6936 C   0  0  0  0  0  0  0  0  0  0  0  0
   13.4901   37.2176   33.3236 N   0  0  0  0  0  0  0  0  0  0  0  0
   11.6115   36.3194   30.4679 O   0  0  0  0  0  0  0  0  0  0  0  0
   14.4759   36.3272   33.5731 C   0  0  0  0  0  0  0  0  0  0  0  0
   13.1175   37.6318   34.5686 C   0  0  0  0  0  0  0  0  0  0  0  0
   15.2063   35.6139   32.6743 N   0  0  0  0  0  0  0  0  0  0  0  0
   14.6730   36.2277   34.9184 C   0  0  0  0  0  0  0  0  0  0  0  0
   13.8222   37.0461   35.5782 N   0  0  0  0  0  0  0  0  0  0  0  0
   16.1636   34.7595   33.1551 C   0  0  0  0  0  0  0  0  0  0  0  0
   15.6514   35.3497   35.4134 C   0  0  0  0  0  0  0  0  0  0  0  0
   16.3791   34.6313   34.5046 N   0  0  0  0  0  0  0  0  0  0  0  0
   15.8997   35.1941   36.8094 N   0  0  0  0  0  0  0  0  0  0  0  0
    9.7777   45.0093   32.1614 H   0  0  0  0  0  0  0  0  0  0  0  0
   11.8805   45.7137   32.8967 H   0  0  0  0  0  0  0  0  0  0  0  0
   10.8085   46.9724   33.0991 H   0  0  0  0  0  0  0  0  0  0  0  0
    7.8156   44.9754   33.6896 H   0  0  0  0  0  0  0  0  0  0  0  0
    8.4041   46.6419   33.4369 H   0  0  0  0  0  0  0  0  0  0  0  0
    9.6941   45.2181   37.8804 H   0  0  0  0  0  0  0  0  0  0  0  0
    8.6437   43.7675   38.0481 H   0  0  0  0  0  0  0  0  0  0  0  0
    6.1087   45.0349   36.7968 H   0  0  0  0  0  0  0  0  0  0  0  0
    6.8988   47.7443   40.8718 H   0  0  0  0  0  0  0  0  0  0  0  0
    4.3097   46.4155   37.7354 H   0  0  0  0  0  0  0  0  0  0  0  0
    4.7099   47.7914   39.7517 H   0  0  0  0  0  0  0  0  0  0  0  0
   11.3994   41.5456   31.4746 H   0  0  0  0  0  0  0  0  0  0  0  0
    9.8309   40.7394   31.7561 H   0  0  0  0  0  0  0  0  0  0  0  0
   11.6992   39.5091   30.3488 H   0  0  0  0  0  0  0  0  0  0  0  0
   10.1131   38.2593   32.6664 H   0  0  0  0  0  0  0  0  0  0  0  0
   13.6798   37.4628   31.2264 H   0  0  0  0  0  0  0  0  0  0  0  0
    8.8952   38.6913   30.8893 H   0  0  0  0  0  0  0  0  0  0  0  0
   11.2824   36.3061   32.4927 H   0  0  0  0  0  0  0  0  0  0  0  0
   11.8862   36.9590   29.7593 H   0  0  0  0  0  0  0  0  0  0  0  0
   12.3361   38.3602   34.7438 H   0  0  0  0  0  0  0  0  0  0  0  0
   16.7568   34.1787   32.4624 H   0  0  0  0  0  0  0  0  0  0  0  0
   16.6352   34.5323   37.1426 H   0  0  0  0  0  0  0  0  0  0  0  0
   15.3516   35.7363   37.5138 H   0  0  0  0  0  0  0  0  0  0  0  0
  1  2  2  0
  1  3  1  0
  3  4  1  0
  4  5  1  0
  6  1  1  0
  7  6  1  0
  6  8  1  0
  8  9  1  0
  9 10  1  0
  9 11  2  0
 10 12  1  0
 12 13  1  0
 13 14  2  0
 15 13  1  0
 14 16  1  0
 14 17  1  0
 18 15  2  0
 16 19  1  0
 16 20  2  0
 17 21  2  0
 21 18  1  0
  4 22  2  0
  4 23  1  0
 24 23  1  0
 24 25  1  0
 25 26  1  0
 25 27  1  0
 26 28  1  0
 27 29  1  0
 27 30  1  0
 30 28  1  0
 28 31  1  0
 30 32  1  0
 33 31  1  0
 34 31  1  0
 35 33  2  0
 33 36  1  0
 37 34  2  0
 38 35  1  0
 36 39  2  0
 36 37  1  0
 40 38  2  0
 40 39  1  0
 39 41  1  0
  6 42  1  6
  7 43  1  0
  7 44  1  0
  8 45  1  0
  8 46  1  0
 12 47  1  0
 12 48  1  0
 15 49  1  0
 17 50  1  0
 18 51  1  0
 21 52  1  0
 24 53  1  0
 24 54  1  0
 25 55  1  0
 27 56  1  0
 28 57  1  0
 29 58  1  0
 30 59  1  0
 32 60  1  0
 34 61  1  0
 38 62  1  0
 41 63  1  0
 41 64  1  0
M  CHG  3   5  -1  16   1  19  -1
M  END
>  <EmbedRMS>  (241) 
0.08829304427818445

$$$$

     RDKit          3D

 64 67  0  0  0  0  0  0  0  0999 V2000
   10.2823   43.7760   33.8083 C   0  0  0  0  0  0  0  0  0  0  0  0
   11.4081   43.5920   34.3582 O   0  0  0  0  0  0  0  0  0  0  0  0
    9.3672   42.7315   33.7007 O   0  0  0  0  0  0  0  0  0  0  0  0
    9.8867   41.2344   34.2837 P   0  0  0  0  0  5  0  0  0  0  0  0
   10.3666   41.4695   35.8744 O   0  0  0  0  0  1  0  0  0  0  0  0
    9.9520   45.1128   33.2440 C   0  0  2  0  0  0  0  0  0  0  0  0
   11.0739   46.0249   33.4839 N   0  0  0  0  0  0  0  0  0  0  0  0
    8.6401   45.6486   33.8584 C   0  0  0  0  0  0  0  0  0  0  0  0
    8.1404   46.8586   33.1300 C   0  0  0  0  0  0  0  0  0  0  0  0
    8.6463   48.1218   33.4595 O   0  0  0  0  0  0  0  0  0  0  0  0
    7.2891   46.7256   32.2086 O   0  0  0  0  0  0  0  0  0  0  0  0
    8.1771   49.3404   32.8791 C   0  0  0  0  0  0  0  0  0  0  0  0
    9.0067   49.7771   31.6861 C   0  0  0  0  0  0  0  0  0  0  0  0
    9.1061   51.1505   31.3281 C   0  0  0  0  0  0  0  0  0  0  0  0
    9.6753   48.8210   30.8942 C   0  0  0  0  0  0  0  0  0  0  0  0
    8.3724   52.1730   32.0251 N   0  0  0  0  0  4  0  0  0  0  0  0
    9.9359   51.5261   30.2574 C   0  0  0  0  0  0  0  0  0  0  0  0
   10.4782   49.2147   29.8230 C   0  0  0  0  0  0  0  0  0  0  0  0
    8.9001   53.4385   32.1406 O   0  0  0  0  0  1  0  0  0  0  0  0
    7.1822   51.9867   32.3521 O   0  0  0  0  0  0  0  0  0  0  0  0
   10.6182   50.5647   29.5129 C   0  0  0  0  0  0  0  0  0  0  0  0
    8.8093   40.1913   34.2077 O   0  0  0  0  0  0  0  0  0  0  0  0
   11.2392   40.7909   33.3682 O   0  0  0  0  0  0  0  0  0  0  0  0
   10.9196   40.6896   31.9946 C   0  0  0  0  0  0  0  0  0  0  0  0
   11.5172   39.3801   31.4397 C   0  0  0  0  0  0  0  0  0  0  0  0
   12.7479   39.0861   32.0733 O   0  0  0  0  0  0  0  0  0  0  0  0
   10.6031   38.1891   31.6666 C   0  0  0  0  0  0  0  0  0  0  0  0
   12.9335   37.6796   32.0279 C   0  0  0  0  0  0  0  0  0  0  0  0
    9.6397   38.0777   30.6456 O   0  0  0  0  0  0  0  0  0  0  0  0
   11.5739   37.0154   31.7057 C   0  0  0  0  0  0  0  0  0  0  0  0
   13.4903   37.2178   33.3231 N   0  0  0  0  0  0  0  0  0  0  0  0
   11.6210   36.3376   30.4695 O   0  0  0  0  0  0  0  0  0  0  0  0
   14.4761   36.3273   33.5725 C   0  0  0  0  0  0  0  0  0  0  0  0
   13.1179   37.6316   34.5684 C   0  0  0  0  0  0  0  0  0  0  0  0
   15.2063   35.6139   32.6737 N   0  0  0  0  0  0  0  0  0  0  0  0
   14.6733   36.2277   34.9180 C   0  0  0  0  0  0  0  0  0  0  0  0
   13.8225   37.0459   35.5779 N   0  0  0  0  0  0  0  0  0  0  0  0
   16.1636   34.7594   33.1546 C   0  0  0  0  0  0  0  0  0  0  0  0
   15.6515   35.3494   35.4129 C   0  0  0  0  0  0  0  0  0  0  0  0
   16.3791   34.6311   34.5041 N   0  0  0  0  0  0  0  0  0  0  0  0
   15.9001   35.1935   36.8088 N   0  0  0  0  0  0  0  0  0  0  0  0
    9.8180   44.9843   32.1465 H   0  0  0  0  0  0  0  0  0  0  0  0
   11.0863   46.3194   34.4882 H   0  0  0  0  0  0  0  0  0  0  0  0
   10.9480   46.8850   32.9049 H   0  0  0  0  0  0  0  0  0  0  0  0
    8.7897   45.9004   34.9307 H   0  0  0  0  0  0  0  0  0  0  0  0
    7.8519   44.8650   33.8119 H   0  0  0  0  0  0  0  0  0  0  0  0
    7.1081   49.2546   32.5874 H   0  0  0  0  0  0  0  0  0  0  0  0
    8.2483   50.1127   33.6729 H   0  0  0  0  0  0  0  0  0  0  0  0
    9.5902   47.7647   31.0982 H   0  0  0  0  0  0  0  0  0  0  0  0
   10.0334   52.5680   29.9797 H   0  0  0  0  0  0  0  0  0  0  0  0
   10.9951   48.4691   29.2326 H   0  0  0  0  0  0  0  0  0  0  0  0
   11.2442   50.8667   28.6831 H   0  0  0  0  0  0  0  0  0  0  0  0
   11.4010   41.5437   31.4721 H   0  0  0  0  0  0  0  0  0  0  0  0
    9.8316   40.7396   31.7549 H   0  0  0  0  0  0  0  0  0  0  0  0
   11.6983   39.5041   30.3470 H   0  0  0  0  0  0  0  0  0  0  0  0
   10.1090   38.2633   32.6649 H   0  0  0  0  0  0  0  0  0  0  0  0
   13.6656   37.4540   31.2207 H   0  0  0  0  0  0  0  0  0  0  0  0
    8.8965   38.6900   30.8852 H   0  0  0  0  0  0  0  0  0  0  0  0
   11.2846   36.3060   32.5175 H   0  0  0  0  0  0  0  0  0  0  0  0
   10.8523   35.7095   30.4590 H   0  0  0  0  0  0  0  0  0  0  0  0
   12.3353   38.3588   34.7439 H   0  0  0  0  0  0  0  0  0  0  0  0
   16.7570   34.1788   32.4619 H   0  0  0  0  0  0  0  0  0  0  0  0
   16.6360   34.5317   37.1414 H   0  0  0  0  0  0  0  0  0  0  0  0
   15.3529   35.7359   37.5136 H   0  0  0  0  0  0  0  0  0  0  0  0
  1  2  2  0
  1  3  1  0
  3  4  1  0
  4  5  1  0
  6  1  1  0
  7  6  1  0
  6  8  1  0
  8  9  1  0
  9 10  1  0
  9 11  2  0
 10 12  1  0
 12 13  1  0
 13 14  2  0
 15 13  1  0
 14 16  1  0
 14 17  1  0
 18 15  2  0
 16 19  1  0
 16 20  2  0
 17 21  2  0
 21 18  1  0
  4 22  2  0
  4 23  1  0
 24 23  1  0
 24 25  1  0
 25 26  1  0
 25 27  1  0
 26 28  1  0
 27 29  1  0
 27 30  1  0
 30 28  1  0
 28 31  1  0
 30 32  1  0
 33 31  1  0
 34 31  1  0
 35 33  2  0
 33 36  1  0
 37 34  2  0
 38 35  1  0
 36 39  2  0
 36 37  1  0
 40 38  2  0
 40 39  1  0
 39 41  1  0
  6 42  1  6
  7 43  1  0
  7 44  1  0
  8 45  1  0
  8 46  1  0
 12 47  1  0
 12 48  1  0
 15 49  1  0
 17 50  1  0
 18 51  1  0
 21 52  1  0
 24 53  1  0
 24 54  1  0
 25 55  1  0
 27 56  1  0
 28 57  1  0
 29 58  1  0
 30 59  1  0
 32 60  1  0
 34 61  1  0
 38 62  1  0
 41 63  1  0
 41 64  1  0
M  CHG  3   5  -1  16   1  19  -1
M  END
>  <EmbedRMS>  (242) 
0.0891816829891153

$$$$

     RDKit          3D

 64 67  0  0  0  0  0  0  0  0999 V2000
   10.2856   43.7712   33.8088 C   0  0  0  0  0  0  0  0  0  0  0  0
   11.4077   43.5826   34.3643 O   0  0  0  0  0  0  0  0  0  0  0  0
    9.3669   42.7305   33.7071 O   0  0  0  0  0  0  0  0  0  0  0  0
    9.8849   41.2324   34.2850 P   0  0  0  0  0  5  0  0  0  0  0  0
   10.3666   41.4653   35.8754 O   0  0  0  0  0  1  0  0  0  0  0  0
    9.9785   45.1075   33.2134 C   0  0  2  0  0  0  0  0  0  0  0  0
   11.0575   46.0539   33.5024 N   0  0  0  0  0  0  0  0  0  0  0  0
    8.6384   45.6738   33.7305 C   0  0  0  0  0  0  0  0  0  0  0  0
    7.4310   45.0510   33.0833 C   0  0  0  0  0  0  0  0  0  0  0  0
    7.5805   44.0594   32.1090 O   0  0  0  0  0  0  0  0  0  0  0  0
    6.2816   45.4469   33.4179 O   0  0  0  0  0  0  0  0  0  0  0  0
    6.4943   43.5196   31.3659 C   0  0  0  0  0  0  0  0  0  0  0  0
    6.9978   42.4300   30.4510 C   0  0  0  0  0  0  0  0  0  0  0  0
    8.1278   42.6108   29.6078 C   0  0  0  0  0  0  0  0  0  0  0  0
    6.3344   41.1892   30.4505 C   0  0  0  0  0  0  0  0  0  0  0  0
    8.8220   43.8683   29.5289 N   0  0  0  0  0  4  0  0  0  0  0  0
    8.5830   41.5307   28.8302 C   0  0  0  0  0  0  0  0  0  0  0  0
    6.7872   40.1393   29.6508 C   0  0  0  0  0  0  0  0  0  0  0  0
    8.1230   45.0526   29.4959 O   0  0  0  0  0  1  0  0  0  0  0  0
   10.0535   43.8917   29.3253 O   0  0  0  0  0  0  0  0  0  0  0  0
    7.9127   40.3078   28.8471 C   0  0  0  0  0  0  0  0  0  0  0  0
    8.8069   40.1903   34.2071 O   0  0  0  0  0  0  0  0  0  0  0  0
   11.2361   40.7925   33.3662 O   0  0  0  0  0  0  0  0  0  0  0  0
   10.9120   40.6880   31.9939 C   0  0  0  0  0  0  0  0  0  0  0  0
   11.5151   39.3811   31.4407 C   0  0  0  0  0  0  0  0  0  0  0  0
   12.7483   39.0904   32.0745 O   0  0  0  0  0  0  0  0  0  0  0  0
   10.6050   38.1879   31.6698 C   0  0  0  0  0  0  0  0  0  0  0  0
   12.9408   37.6842   32.0270 C   0  0  0  0  0  0  0  0  0  0  0  0
    9.6359   38.0777   30.6545 O   0  0  0  0  0  0  0  0  0  0  0  0
   11.5821   37.0196   31.6933 C   0  0  0  0  0  0  0  0  0  0  0  0
   13.4909   37.2188   33.3233 N   0  0  0  0  0  0  0  0  0  0  0  0
   11.6124   36.3208   30.4664 O   0  0  0  0  0  0  0  0  0  0  0  0
   14.4761   36.3276   33.5729 C   0  0  0  0  0  0  0  0  0  0  0  0
   13.1178   37.6323   34.5684 C   0  0  0  0  0  0  0  0  0  0  0  0
   15.2065   35.6144   32.6741 N   0  0  0  0  0  0  0  0  0  0  0  0
   14.6728   36.2276   34.9183 C   0  0  0  0  0  0  0  0  0  0  0  0
   13.8220   37.0459   35.5781 N   0  0  0  0  0  0  0  0  0  0  0  0
   16.1636   34.7597   33.1548 C   0  0  0  0  0  0  0  0  0  0  0  0
   15.6512   35.3493   35.4132 C   0  0  0  0  0  0  0  0  0  0  0  0
   16.3789   34.6312   34.5043 N   0  0  0  0  0  0  0  0  0  0  0  0
   15.8999   35.1935   36.8090 N   0  0  0  0  0  0  0  0  0  0  0  0
    9.9255   44.9922   32.1086 H   0  0  0  0  0  0  0  0  0  0  0  0
   11.2022   46.1288   34.5367 H   0  0  0  0  0  0  0  0  0  0  0  0
   11.9468   45.7175   33.0646 H   0  0  0  0  0  0  0  0  0  0  0  0
    8.6028   46.7642   33.5162 H   0  0  0  0  0  0  0  0  0  0  0  0
    8.5715   45.5483   34.8335 H   0  0  0  0  0  0  0  0  0  0  0  0
    5.7361   43.1213   32.0756 H   0  0  0  0  0  0  0  0  0  0  0  0
    6.0113   44.3173   30.7628 H   0  0  0  0  0  0  0  0  0  0  0  0
    5.4658   41.0283   31.0769 H   0  0  0  0  0  0  0  0  0  0  0  0
    9.4485   41.6437   28.1896 H   0  0  0  0  0  0  0  0  0  0  0  0
    6.2700   39.1886   29.6625 H   0  0  0  0  0  0  0  0  0  0  0  0
    8.2672   39.4885   28.2350 H   0  0  0  0  0  0  0  0  0  0  0  0
   11.3843   41.5449   31.4675 H   0  0  0  0  0  0  0  0  0  0  0  0
    9.8222   40.7282   31.7574 H   0  0  0  0  0  0  0  0  0  0  0  0
   11.6943   39.5067   30.3478 H   0  0  0  0  0  0  0  0  0  0  0  0
   10.1239   38.2565   32.6758 H   0  0  0  0  0  0  0  0  0  0  0  0
   13.6810   37.4641   31.2260 H   0  0  0  0  0  0  0  0  0  0  0  0
    8.8354   38.5691   30.9727 H   0  0  0  0  0  0  0  0  0  0  0  0
   11.2868   36.3032   32.4914 H   0  0  0  0  0  0  0  0  0  0  0  0
   11.8842   36.9622   29.7583 H   0  0  0  0  0  0  0  0  0  0  0  0
   12.3363   38.3607   34.7437 H   0  0  0  0  0  0  0  0  0  0  0  0
   16.7571   34.1792   32.4621 H   0  0  0  0  0  0  0  0  0  0  0  0
   15.3527   35.7358   37.5139 H   0  0  0  0  0  0  0  0  0  0  0  0
   16.6359   34.5318   37.1415 H   0  0  0  0  0  0  0  0  0  0  0  0
  1  2  2  0
  1  3  1  0
  3  4  1  0
  4  5  1  0
  6  1  1  0
  7  6  1  0
  6  8  1  0
  8  9  1  0
  9 10  1  0
  9 11  2  0
 10 12  1  0
 12 13  1  0
 13 14  2  0
 15 13  1  0
 14 16  1  0
 14 17  1  0
 18 15  2  0
 16 19  1  0
 16 20  2  0
 17 21  2  0
 21 18  1  0
  4 22  2  0
  4 23  1  0
 24 23  1  0
 24 25  1  0
 25 26  1  0
 25 27  1  0
 26 28  1  0
 27 29  1  0
 27 30  1  0
 30 28  1  0
 28 31  1  0
 30 32  1  0
 33 31  1  0
 34 31  1  0
 35 33  2  0
 33 36  1  0
 37 34  2  0
 38 35  1  0
 36 39  2  0
 36 37  1  0
 40 38  2  0
 40 39  1  0
 39 41  1  0
  6 42  1  6
  7 43  1  0
  7 44  1  0
  8 45  1  0
  8 46  1  0
 12 47  1  0
 12 48  1  0
 15 49  1  0
 17 50  1  0
 18 51  1  0
 21 52  1  0
 24 53  1  0
 24 54  1  0
 25 55  1  0
 27 56  1  0
 28 57  1  0
 29 58  1  0
 30 59  1  0
 32 60  1  0
 34 61  1  0
 38 62  1  0
 41 63  1  0
 41 64  1  0
M  CHG  3   5  -1  16   1  19  -1
M  END
>  <EmbedRMS>  (243) 
0.08900782659968395

$$$$

     RDKit          3D

 64 67  0  0  0  0  0  0  0  0999 V2000
   10.2875   43.7706   33.8015 C   0  0  0  0  0  0  0  0  0  0  0  0
   11.4130   43.5857   34.3511 O   0  0  0  0  0  0  0  0  0  0  0  0
    9.3670   42.7308   33.7005 O   0  0  0  0  0  0  0  0  0  0  0  0
    9.8848   41.2345   34.2857 P   0  0  0  0  0  5  0  0  0  0  0  0
   10.3647   41.4713   35.8761 O   0  0  0  0  0  1  0  0  0  0  0  0
    9.9594   45.1100   33.2435 C   0  0  2  0  0  0  0  0  0  0  0  0
   11.0635   46.0397   33.4916 N   0  0  0  0  0  0  0  0  0  0  0  0
    8.6119   45.6536   33.7759 C   0  0  0  0  0  0  0  0  0  0  0  0
    8.5729   45.8888   35.2619 C   0  0  0  0  0  0  0  0  0  0  0  0
    9.2528   45.0283   36.1323 O   0  0  0  0  0  0  0  0  0  0  0  0
    7.8644   46.8271   35.7185 O   0  0  0  0  0  0  0  0  0  0  0  0
    9.0960   45.0607   37.5495 C   0  0  0  0  0  0  0  0  0  0  0  0
    7.7629   44.4772   37.9652 C   0  0  0  0  0  0  0  0  0  0  0  0
    7.0592   44.9546   39.1015 C   0  0  0  0  0  0  0  0  0  0  0  0
    7.2164   43.4143   37.2190 C   0  0  0  0  0  0  0  0  0  0  0  0
    7.6179   45.9563   39.9681 N   0  0  0  0  0  4  0  0  0  0  0  0
    5.7936   44.4188   39.4014 C   0  0  0  0  0  0  0  0  0  0  0  0
    5.9680   42.8830   37.5445 C   0  0  0  0  0  0  0  0  0  0  0  0
    8.9338   45.8753   40.3617 O   0  0  0  0  0  1  0  0  0  0  0  0
    6.8716   46.7844   40.5302 O   0  0  0  0  0  0  0  0  0  0  0  0
    5.2524   43.3926   38.6259 C   0  0  0  0  0  0  0  0  0  0  0  0
    8.8073   40.1916   34.2097 O   0  0  0  0  0  0  0  0  0  0  0  0
   11.2374   40.7901   33.3708 O   0  0  0  0  0  0  0  0  0  0  0  0
   10.9184   40.6905   31.9971 C   0  0  0  0  0  0  0  0  0  0  0  0
   11.5173   39.3826   31.4416 C   0  0  0  0  0  0  0  0  0  0  0  0
   12.7493   39.0894   32.0757 O   0  0  0  0  0  0  0  0  0  0  0  0
   10.6035   38.1899   31.6661 C   0  0  0  0  0  0  0  0  0  0  0  0
   12.9400   37.6835   32.0276 C   0  0  0  0  0  0  0  0  0  0  0  0
    9.6376   38.0786   30.6474 O   0  0  0  0  0  0  0  0  0  0  0  0
   11.5803   37.0204   31.6937 C   0  0  0  0  0  0  0  0  0  0  0  0
   13.4901   37.2178   33.3237 N   0  0  0  0  0  0  0  0  0  0  0  0
   11.6118   36.3194   30.4680 O   0  0  0  0  0  0  0  0  0  0  0  0
   14.4758   36.3272   33.5731 C   0  0  0  0  0  0  0  0  0  0  0  0
   13.1175   37.6318   34.5688 C   0  0  0  0  0  0  0  0  0  0  0  0
   15.2064   35.6142   32.6742 N   0  0  0  0  0  0  0  0  0  0  0  0
   14.6729   36.2274   34.9184 C   0  0  0  0  0  0  0  0  0  0  0  0
   13.8221   37.0457   35.5784 N   0  0  0  0  0  0  0  0  0  0  0  0
   16.1637   34.7597   33.1549 C   0  0  0  0  0  0  0  0  0  0  0  0
   15.6514   35.3493   35.4133 C   0  0  0  0  0  0  0  0  0  0  0  0
   16.3791   34.6312   34.5044 N   0  0  0  0  0  0  0  0  0  0  0  0
   15.9001   35.1935   36.8091 N   0  0  0  0  0  0  0  0  0  0  0  0
    9.8586   44.9825   32.1432 H   0  0  0  0  0  0  0  0  0  0  0  0
   10.8583   46.9396   32.9995 H   0  0  0  0  0  0  0  0  0  0  0  0
   11.1303   46.2541   34.5132 H   0  0  0  0  0  0  0  0  0  0  0  0
    8.3850   46.6081   33.2526 H   0  0  0  0  0  0  0  0  0  0  0  0
    7.7989   44.9423   33.5150 H   0  0  0  0  0  0  0  0  0  0  0  0
    9.2096   46.1105   37.8934 H   0  0  0  0  0  0  0  0  0  0  0  0
    9.9044   44.4551   38.0094 H   0  0  0  0  0  0  0  0  0  0  0  0
    7.7503   43.0022   36.3717 H   0  0  0  0  0  0  0  0  0  0  0  0
    5.2363   44.7781   40.2573 H   0  0  0  0  0  0  0  0  0  0  0  0
    5.5534   42.0761   36.9540 H   0  0  0  0  0  0  0  0  0  0  0  0
    4.2828   42.9807   38.8745 H   0  0  0  0  0  0  0  0  0  0  0  0
   11.3992   41.5457   31.4759 H   0  0  0  0  0  0  0  0  0  0  0  0
    9.8305   40.7395   31.7571 H   0  0  0  0  0  0  0  0  0  0  0  0
   11.6985   39.5097   30.3494 H   0  0  0  0  0  0  0  0  0  0  0  0
   10.1128   38.2587   32.6665 H   0  0  0  0  0  0  0  0  0  0  0  0
   13.6800   37.4629   31.2266 H   0  0  0  0  0  0  0  0  0  0  0  0
    8.8952   38.6909   30.8891 H   0  0  0  0  0  0  0  0  0  0  0  0
   11.2831   36.3060   32.4929 H   0  0  0  0  0  0  0  0  0  0  0  0
   11.8859   36.9590   29.7593 H   0  0  0  0  0  0  0  0  0  0  0  0
   12.3360   38.3600   34.7442 H   0  0  0  0  0  0  0  0  0  0  0  0
   16.7572   34.1793   32.4621 H   0  0  0  0  0  0  0  0  0  0  0  0
   16.6362   34.5318   37.1416 H   0  0  0  0  0  0  0  0  0  0  0  0
   15.3528   35.7356   37.5140 H   0  0  0  0  0  0  0  0  0  0  0  0
  1  2  2  0
  1  3  1  0
  3  4  1  0
  4  5  1  0
  6  1  1  0
  7  6  1  0
  6  8  1  0
  8  9  1  0
  9 10  1  0
  9 11  2  0
 10 12  1  0
 12 13  1  0
 13 14  2  0
 15 13  1  0
 14 16  1  0
 14 17  1  0
 18 15  2  0
 16 19  1  0
 16 20  2  0
 17 21  2  0
 21 18  1  0
  4 22  2  0
  4 23  1  0
 24 23  1  0
 24 25  1  0
 25 26  1  0
 25 27  1  0
 26 28  1  0
 27 29  1  0
 27 30  1  0
 30 28  1  0
 28 31  1  0
 30 32  1  0
 33 31  1  0
 34 31  1  0
 35 33  2  0
 33 36  1  0
 37 34  2  0
 38 35  1  0
 36 39  2  0
 36 37  1  0
 40 38  2  0
 40 39  1  0
 39 41  1  0
  6 42  1  6
  7 43  1  0
  7 44  1  0
  8 45  1  0
  8 46  1  0
 12 47  1  0
 12 48  1  0
 15 49  1  0
 17 50  1  0
 18 51  1  0
 21 52  1  0
 24 53  1  0
 24 54  1  0
 25 55  1  0
 27 56  1  0
 28 57  1  0
 29 58  1  0
 30 59  1  0
 32 60  1  0
 34 61  1  0
 38 62  1  0
 41 63  1  0
 41 64  1  0
M  CHG  3   5  -1  16   1  19  -1
M  END
>  <EmbedRMS>  (244) 
0.08822637123741546

$$$$

     RDKit          3D

 64 67  0  0  0  0  0  0  0  0999 V2000
   10.2805   43.7768   33.8116 C   0  0  0  0  0  0  0  0  0  0  0  0
   11.4061   43.5940   34.3621 O   0  0  0  0  0  0  0  0  0  0  0  0
    9.3690   42.7297   33.7047 O   0  0  0  0  0  0  0  0  0  0  0  0
    9.8884   41.2334   34.2858 P   0  0  0  0  0  5  0  0  0  0  0  0
   10.3680   41.4681   35.8764 O   0  0  0  0  0  1  0  0  0  0  0  0
    9.9610   45.1107   33.2249 C   0  0  2  0  0  0  0  0  0  0  0  0
   11.0681   46.0307   33.4909 N   0  0  0  0  0  0  0  0  0  0  0  0
    8.6320   45.6870   33.7696 C   0  0  0  0  0  0  0  0  0  0  0  0
    7.4318   44.8779   33.3671 C   0  0  0  0  0  0  0  0  0  0  0  0
    7.4224   44.2032   32.1426 O   0  0  0  0  0  0  0  0  0  0  0  0
    6.4295   44.8306   34.1310 O   0  0  0  0  0  0  0  0  0  0  0  0
    6.4028   43.2777   31.7761 C   0  0  0  0  0  0  0  0  0  0  0  0
    6.7931   42.4904   30.5440 C   0  0  0  0  0  0  0  0  0  0  0  0
    5.8182   41.8159   29.7592 C   0  0  0  0  0  0  0  0  0  0  0  0
    8.1525   42.3785   30.1853 C   0  0  0  0  0  0  0  0  0  0  0  0
    4.4211   41.8269   30.1047 N   0  0  0  0  0  4  0  0  0  0  0  0
    6.2264   41.1108   28.6129 C   0  0  0  0  0  0  0  0  0  0  0  0
    8.5370   41.6531   29.0576 C   0  0  0  0  0  0  0  0  0  0  0  0
    3.4689   41.7376   29.1153 O   0  0  0  0  0  1  0  0  0  0  0  0
    4.0592   41.7296   31.2952 O   0  0  0  0  0  0  0  0  0  0  0  0
    7.5755   41.0282   28.2680 C   0  0  0  0  0  0  0  0  0  0  0  0
    8.8100   40.1915   34.2085 O   0  0  0  0  0  0  0  0  0  0  0  0
   11.2403   40.7912   33.3685 O   0  0  0  0  0  0  0  0  0  0  0  0
   10.9162   40.6866   31.9964 C   0  0  0  0  0  0  0  0  0  0  0  0
   11.5168   39.3801   31.4396 C   0  0  0  0  0  0  0  0  0  0  0  0
   12.7474   39.0862   32.0734 O   0  0  0  0  0  0  0  0  0  0  0  0
   10.6026   38.1888   31.6649 C   0  0  0  0  0  0  0  0  0  0  0  0
   12.9332   37.6798   32.0278 C   0  0  0  0  0  0  0  0  0  0  0  0
    9.6398   38.0779   30.6431 O   0  0  0  0  0  0  0  0  0  0  0  0
   11.5736   37.0154   31.7051 C   0  0  0  0  0  0  0  0  0  0  0  0
   13.4900   37.2177   33.3229 N   0  0  0  0  0  0  0  0  0  0  0  0
   11.6213   36.3372   30.4691 O   0  0  0  0  0  0  0  0  0  0  0  0
   14.4760   36.3273   33.5724 C   0  0  0  0  0  0  0  0  0  0  0  0
   13.1177   37.6316   34.5683 C   0  0  0  0  0  0  0  0  0  0  0  0
   15.2062   35.6139   32.6736 N   0  0  0  0  0  0  0  0  0  0  0  0
   14.6733   36.2278   34.9179 C   0  0  0  0  0  0  0  0  0  0  0  0
   13.8224   37.0459   35.5778 N   0  0  0  0  0  0  0  0  0  0  0  0
   16.1636   34.7595   33.1545 C   0  0  0  0  0  0  0  0  0  0  0  0
   15.6515   35.3495   35.4128 C   0  0  0  0  0  0  0  0  0  0  0  0
   16.3790   34.6312   34.5040 N   0  0  0  0  0  0  0  0  0  0  0  0
   15.9001   35.1936   36.8087 N   0  0  0  0  0  0  0  0  0  0  0  0
    9.8801   44.9834   32.1227 H   0  0  0  0  0  0  0  0  0  0  0  0
   10.9110   46.9093   32.9453 H   0  0  0  0  0  0  0  0  0  0  0  0
   11.0705   46.2923   34.5047 H   0  0  0  0  0  0  0  0  0  0  0  0
    8.6809   45.7492   34.8793 H   0  0  0  0  0  0  0  0  0  0  0  0
    8.4916   46.7172   33.3781 H   0  0  0  0  0  0  0  0  0  0  0  0
    5.4679   43.8473   31.5872 H   0  0  0  0  0  0  0  0  0  0  0  0
    6.2379   42.5612   32.6101 H   0  0  0  0  0  0  0  0  0  0  0  0
    8.9262   42.8517   30.7756 H   0  0  0  0  0  0  0  0  0  0  0  0
    5.4982   40.5975   27.9978 H   0  0  0  0  0  0  0  0  0  0  0  0
    9.5847   41.5760   28.7961 H   0  0  0  0  0  0  0  0  0  0  0  0
    7.8766   40.4683   27.3919 H   0  0  0  0  0  0  0  0  0  0  0  0
    9.8273   40.7207   31.7664 H   0  0  0  0  0  0  0  0  0  0  0  0
   11.3850   41.5448   31.4692 H   0  0  0  0  0  0  0  0  0  0  0  0
   11.6975   39.5063   30.3471 H   0  0  0  0  0  0  0  0  0  0  0  0
   10.1066   38.2622   32.6623 H   0  0  0  0  0  0  0  0  0  0  0  0
   13.6654   37.4545   31.2206 H   0  0  0  0  0  0  0  0  0  0  0  0
    8.9044   38.7035   30.8721 H   0  0  0  0  0  0  0  0  0  0  0  0
   11.2840   36.3062   32.5169 H   0  0  0  0  0  0  0  0  0  0  0  0
   10.8520   35.7098   30.4581 H   0  0  0  0  0  0  0  0  0  0  0  0
   12.3351   38.3587   34.7438 H   0  0  0  0  0  0  0  0  0  0  0  0
   16.7570   34.1789   32.4618 H   0  0  0  0  0  0  0  0  0  0  0  0
   15.3528   35.7359   37.5136 H   0  0  0  0  0  0  0  0  0  0  0  0
   16.6359   34.5317   37.1413 H   0  0  0  0  0  0  0  0  0  0  0  0
  1  2  2  0
  1  3  1  0
  3  4  1  0
  4  5  1  0
  6  1  1  0
  7  6  1  0
  6  8  1  0
  8  9  1  0
  9 10  1  0
  9 11  2  0
 10 12  1  0
 12 13  1  0
 13 14  2  0
 15 13  1  0
 14 16  1  0
 14 17  1  0
 18 15  2  0
 16 19  1  0
 16 20  2  0
 17 21  2  0
 21 18  1  0
  4 22  2  0
  4 23  1  0
 24 23  1  0
 24 25  1  0
 25 26  1  0
 25 27  1  0
 26 28  1  0
 27 29  1  0
 27 30  1  0
 30 28  1  0
 28 31  1  0
 30 32  1  0
 33 31  1  0
 34 31  1  0
 35 33  2  0
 33 36  1  0
 37 34  2  0
 38 35  1  0
 36 39  2  0
 36 37  1  0
 40 38  2  0
 40 39  1  0
 39 41  1  0
  6 42  1  6
  7 43  1  0
  7 44  1  0
  8 45  1  0
  8 46  1  0
 12 47  1  0
 12 48  1  0
 15 49  1  0
 17 50  1  0
 18 51  1  0
 21 52  1  0
 24 53  1  0
 24 54  1  0
 25 55  1  0
 27 56  1  0
 28 57  1  0
 29 58  1  0
 30 59  1  0
 32 60  1  0
 34 61  1  0
 38 62  1  0
 41 63  1  0
 41 64  1  0
M  CHG  3   5  -1  16   1  19  -1
M  END
>  <EmbedRMS>  (245) 
0.0895693313283255

$$$$

     RDKit          3D

 64 67  0  0  0  0  0  0  0  0999 V2000
   10.2860   43.7720   33.8048 C   0  0  0  0  0  0  0  0  0  0  0  0
   11.4085   43.5886   34.3612 O   0  0  0  0  0  0  0  0  0  0  0  0
    9.3675   42.7309   33.6994 O   0  0  0  0  0  0  0  0  0  0  0  0
    9.8855   41.2342   34.2843 P   0  0  0  0  0  5  0  0  0  0  0  0
   10.3651   41.4701   35.8750 O   0  0  0  0  0  1  0  0  0  0  0  0
    9.9531   45.1146   33.2530 C   0  0  2  0  0  0  0  0  0  0  0  0
   11.0713   46.0332   33.4768 N   0  0  0  0  0  0  0  0  0  0  0  0
    8.6595   45.6652   33.8874 C   0  0  0  0  0  0  0  0  0  0  0  0
    8.7896   45.8587   35.3692 C   0  0  0  0  0  0  0  0  0  0  0  0
    9.4365   46.9964   35.8584 O   0  0  0  0  0  0  0  0  0  0  0  0
    8.3499   44.9785   36.1586 O   0  0  0  0  0  0  0  0  0  0  0  0
    9.6453   47.2266   37.2492 C   0  0  0  0  0  0  0  0  0  0  0  0
   10.4314   48.4985   37.4713 C   0  0  0  0  0  0  0  0  0  0  0  0
   10.2727   49.2738   38.6505 C   0  0  0  0  0  0  0  0  0  0  0  0
   11.3683   48.9117   36.5030 C   0  0  0  0  0  0  0  0  0  0  0  0
    9.4153   48.8480   39.7239 N   0  0  0  0  0  4  0  0  0  0  0  0
   10.9858   50.4794   38.7819 C   0  0  0  0  0  0  0  0  0  0  0  0
   12.0800   50.1015   36.6618 C   0  0  0  0  0  0  0  0  0  0  0  0
    9.4093   47.5329   40.1283 O   0  0  0  0  0  1  0  0  0  0  0  0
    8.8178   49.6939   40.4212 O   0  0  0  0  0  0  0  0  0  0  0  0
   11.8802   50.8899   37.7929 C   0  0  0  0  0  0  0  0  0  0  0  0
    8.8081   40.1911   34.2081 O   0  0  0  0  0  0  0  0  0  0  0  0
   11.2382   40.7905   33.3697 O   0  0  0  0  0  0  0  0  0  0  0  0
   10.9190   40.6905   31.9962 C   0  0  0  0  0  0  0  0  0  0  0  0
   11.5175   39.3823   31.4412 C   0  0  0  0  0  0  0  0  0  0  0  0
   12.7495   39.0892   32.0755 O   0  0  0  0  0  0  0  0  0  0  0  0
   10.6036   38.1899   31.6659 C   0  0  0  0  0  0  0  0  0  0  0  0
   12.9401   37.6833   32.0276 C   0  0  0  0  0  0  0  0  0  0  0  0
    9.6376   38.0785   30.6474 O   0  0  0  0  0  0  0  0  0  0  0  0
   11.5803   37.0203   31.6937 C   0  0  0  0  0  0  0  0  0  0  0  0
   13.4902   37.2177   33.3237 N   0  0  0  0  0  0  0  0  0  0  0  0
   11.6117   36.3193   30.4680 O   0  0  0  0  0  0  0  0  0  0  0  0
   14.4759   36.3271   33.5731 C   0  0  0  0  0  0  0  0  0  0  0  0
   13.1176   37.6317   34.5688 C   0  0  0  0  0  0  0  0  0  0  0  0
   15.2064   35.6141   32.6742 N   0  0  0  0  0  0  0  0  0  0  0  0
   14.6729   36.2274   34.9184 C   0  0  0  0  0  0  0  0  0  0  0  0
   13.8221   37.0457   35.5783 N   0  0  0  0  0  0  0  0  0  0  0  0
   16.1637   34.7596   33.1549 C   0  0  0  0  0  0  0  0  0  0  0  0
   15.6514   35.3493   35.4133 C   0  0  0  0  0  0  0  0  0  0  0  0
   16.3791   34.6311   34.5044 N   0  0  0  0  0  0  0  0  0  0  0  0
   15.9001   35.1935   36.8091 N   0  0  0  0  0  0  0  0  0  0  0  0
    9.7843   45.0050   32.1581 H   0  0  0  0  0  0  0  0  0  0  0  0
   10.8098   46.9725   33.0976 H   0  0  0  0  0  0  0  0  0  0  0  0
   11.8825   45.7137   32.8976 H   0  0  0  0  0  0  0  0  0  0  0  0
    8.4066   46.6414   33.4205 H   0  0  0  0  0  0  0  0  0  0  0  0
    7.8128   44.9766   33.6728 H   0  0  0  0  0  0  0  0  0  0  0  0
    8.6496   47.2985   37.7364 H   0  0  0  0  0  0  0  0  0  0  0  0
   10.2096   46.3757   37.6880 H   0  0  0  0  0  0  0  0  0  0  0  0
   11.5447   48.3190   35.6142 H   0  0  0  0  0  0  0  0  0  0  0  0
   10.8693   51.0904   39.6682 H   0  0  0  0  0  0  0  0  0  0  0  0
   12.7869   50.4139   35.9039 H   0  0  0  0  0  0  0  0  0  0  0  0
   12.4316   51.8137   37.9119 H   0  0  0  0  0  0  0  0  0  0  0  0
   11.4000   41.5454   31.4746 H   0  0  0  0  0  0  0  0  0  0  0  0
    9.8311   40.7397   31.7560 H   0  0  0  0  0  0  0  0  0  0  0  0
   11.6989   39.5091   30.3489 H   0  0  0  0  0  0  0  0  0  0  0  0
   10.1131   38.2589   32.6664 H   0  0  0  0  0  0  0  0  0  0  0  0
   13.6800   37.4627   31.2265 H   0  0  0  0  0  0  0  0  0  0  0  0
    8.8953   38.6909   30.8891 H   0  0  0  0  0  0  0  0  0  0  0  0
   11.2830   36.3060   32.4929 H   0  0  0  0  0  0  0  0  0  0  0  0
   11.8859   36.9589   29.7593 H   0  0  0  0  0  0  0  0  0  0  0  0
   12.3360   38.3600   34.7441 H   0  0  0  0  0  0  0  0  0  0  0  0
   16.7572   34.1793   32.4621 H   0  0  0  0  0  0  0  0  0  0  0  0
   15.3528   35.7357   37.5140 H   0  0  0  0  0  0  0  0  0  0  0  0
   16.6362   34.5318   37.1416 H   0  0  0  0  0  0  0  0  0  0  0  0
  1  2  2  0
  1  3  1  0
  3  4  1  0
  4  5  1  0
  6  1  1  0
  7  6  1  0
  6  8  1  0
  8  9  1  0
  9 10  1  0
  9 11  2  0
 10 12  1  0
 12 13  1  0
 13 14  2  0
 15 13  1  0
 14 16  1  0
 14 17  1  0
 18 15  2  0
 16 19  1  0
 16 20  2  0
 17 21  2  0
 21 18  1  0
  4 22  2  0
  4 23  1  0
 24 23  1  0
 24 25  1  0
 25 26  1  0
 25 27  1  0
 26 28  1  0
 27 29  1  0
 27 30  1  0
 30 28  1  0
 28 31  1  0
 30 32  1  0
 33 31  1  0
 34 31  1  0
 35 33  2  0
 33 36  1  0
 37 34  2  0
 38 35  1  0
 36 39  2  0
 36 37  1  0
 40 38  2  0
 40 39  1  0
 39 41  1  0
  6 42  1  6
  7 43  1  0
  7 44  1  0
  8 45  1  0
  8 46  1  0
 12 47  1  0
 12 48  1  0
 15 49  1  0
 17 50  1  0
 18 51  1  0
 21 52  1  0
 24 53  1  0
 24 54  1  0
 25 55  1  0
 27 56  1  0
 28 57  1  0
 29 58  1  0
 30 59  1  0
 32 60  1  0
 34 61  1  0
 38 62  1  0
 41 63  1  0
 41 64  1  0
M  CHG  3   5  -1  16   1  19  -1
M  END
>  <EmbedRMS>  (246) 
0.08832458283524676

$$$$

     RDKit          3D

 64 67  0  0  0  0  0  0  0  0999 V2000
   10.2861   43.7719   33.8046 C   0  0  0  0  0  0  0  0  0  0  0  0
   11.4085   43.5886   34.3612 O   0  0  0  0  0  0  0  0  0  0  0  0
    9.3678   42.7307   33.6990 O   0  0  0  0  0  0  0  0  0  0  0  0
    9.8859   41.2339   34.2835 P   0  0  0  0  0  5  0  0  0  0  0  0
   10.3655   41.4699   35.8743 O   0  0  0  0  0  1  0  0  0  0  0  0
    9.9529   45.1147   33.2534 C   0  0  2  0  0  0  0  0  0  0  0  0
   11.0714   46.0330   33.4765 N   0  0  0  0  0  0  0  0  0  0  0  0
    8.6600   45.6653   33.8893 C   0  0  0  0  0  0  0  0  0  0  0  0
    8.7910   45.8563   35.3714 C   0  0  0  0  0  0  0  0  0  0  0  0
    9.4454   46.9890   35.8621 O   0  0  0  0  0  0  0  0  0  0  0  0
    8.3452   44.9781   36.1597 O   0  0  0  0  0  0  0  0  0  0  0  0
    9.6565   47.2157   37.2532 C   0  0  0  0  0  0  0  0  0  0  0  0
   10.4519   48.4817   37.4794 C   0  0  0  0  0  0  0  0  0  0  0  0
   10.3218   49.2381   38.6758 C   0  0  0  0  0  0  0  0  0  0  0  0
   11.3704   48.9083   36.4991 C   0  0  0  0  0  0  0  0  0  0  0  0
    9.4836   48.8052   39.7616 N   0  0  0  0  0  4  0  0  0  0  0  0
   11.0410   50.4385   38.8115 C   0  0  0  0  0  0  0  0  0  0  0  0
   12.0897   50.0927   36.6632 C   0  0  0  0  0  0  0  0  0  0  0  0
    8.8768   49.7360   40.5734 O   0  0  0  0  0  1  0  0  0  0  0  0
    9.4580   47.6044   40.1015 O   0  0  0  0  0  0  0  0  0  0  0  0
   11.9162   50.8625   37.8111 C   0  0  0  0  0  0  0  0  0  0  0  0
    8.8083   40.1910   34.2077 O   0  0  0  0  0  0  0  0  0  0  0  0
   11.2386   40.7898   33.3687 O   0  0  0  0  0  0  0  0  0  0  0  0
   10.9197   40.6894   31.9948 C   0  0  0  0  0  0  0  0  0  0  0  0
   11.5172   39.3800   31.4397 C   0  0  0  0  0  0  0  0  0  0  0  0
   12.7480   39.0860   32.0732 O   0  0  0  0  0  0  0  0  0  0  0  0
   10.6032   38.1891   31.6666 C   0  0  0  0  0  0  0  0  0  0  0  0
   12.9336   37.6796   32.0279 C   0  0  0  0  0  0  0  0  0  0  0  0
    9.6397   38.0777   30.6456 O   0  0  0  0  0  0  0  0  0  0  0  0
   11.5739   37.0154   31.7057 C   0  0  0  0  0  0  0  0  0  0  0  0
   13.4903   37.2178   33.3231 N   0  0  0  0  0  0  0  0  0  0  0  0
   11.6211   36.3376   30.4695 O   0  0  0  0  0  0  0  0  0  0  0  0
   14.4761   36.3273   33.5725 C   0  0  0  0  0  0  0  0  0  0  0  0
   13.1179   37.6316   34.5684 C   0  0  0  0  0  0  0  0  0  0  0  0
   15.2063   35.6139   32.6737 N   0  0  0  0  0  0  0  0  0  0  0  0
   14.6734   36.2277   34.9180 C   0  0  0  0  0  0  0  0  0  0  0  0
   13.8225   37.0459   35.5779 N   0  0  0  0  0  0  0  0  0  0  0  0
   16.1636   34.7594   33.1546 C   0  0  0  0  0  0  0  0  0  0  0  0
   15.6515   35.3494   35.4129 C   0  0  0  0  0  0  0  0  0  0  0  0
   16.3791   34.6311   34.5041 N   0  0  0  0  0  0  0  0  0  0  0  0
   15.9001   35.1935   36.8088 N   0  0  0  0  0  0  0  0  0  0  0  0
    9.7831   45.0054   32.1586 H   0  0  0  0  0  0  0  0  0  0  0  0
   11.8823   45.7134   32.8969 H   0  0  0  0  0  0  0  0  0  0  0  0
   10.8099   46.9724   33.0974 H   0  0  0  0  0  0  0  0  0  0  0  0
    7.8127   44.9776   33.6739 H   0  0  0  0  0  0  0  0  0  0  0  0
    8.4076   46.6425   33.4241 H   0  0  0  0  0  0  0  0  0  0  0  0
   10.2143   46.3596   37.6904 H   0  0  0  0  0  0  0  0  0  0  0  0
    8.6614   47.2945   37.7408 H   0  0  0  0  0  0  0  0  0  0  0  0
   11.5270   48.3306   35.5968 H   0  0  0  0  0  0  0  0  0  0  0  0
   10.9454   51.0353   39.7097 H   0  0  0  0  0  0  0  0  0  0  0  0
   12.7820   50.4154   35.8962 H   0  0  0  0  0  0  0  0  0  0  0  0
   12.4733   51.7823   37.9341 H   0  0  0  0  0  0  0  0  0  0  0  0
    9.8319   40.7398   31.7546 H   0  0  0  0  0  0  0  0  0  0  0  0
   11.4016   41.5436   31.4731 H   0  0  0  0  0  0  0  0  0  0  0  0
   11.6983   39.5042   30.3470 H   0  0  0  0  0  0  0  0  0  0  0  0
   10.1090   38.2632   32.6649 H   0  0  0  0  0  0  0  0  0  0  0  0
   13.6656   37.4539   31.2207 H   0  0  0  0  0  0  0  0  0  0  0  0
    8.8966   38.6901   30.8852 H   0  0  0  0  0  0  0  0  0  0  0  0
   11.2846   36.3060   32.5175 H   0  0  0  0  0  0  0  0  0  0  0  0
   10.8523   35.7094   30.4590 H   0  0  0  0  0  0  0  0  0  0  0  0
   12.3353   38.3588   34.7439 H   0  0  0  0  0  0  0  0  0  0  0  0
   16.7570   34.1788   32.4619 H   0  0  0  0  0  0  0  0  0  0  0  0
   16.6360   34.5317   37.1414 H   0  0  0  0  0  0  0  0  0  0  0  0
   15.3529   35.7359   37.5136 H   0  0  0  0  0  0  0  0  0  0  0  0
  1  2  2  0
  1  3  1  0
  3  4  1  0
  4  5  1  0
  6  1  1  0
  7  6  1  0
  6  8  1  0
  8  9  1  0
  9 10  1  0
  9 11  2  0
 10 12  1  0
 12 13  1  0
 13 14  2  0
 15 13  1  0
 14 16  1  0
 14 17  1  0
 18 15  2  0
 16 19  1  0
 16 20  2  0
 17 21  2  0
 21 18  1  0
  4 22  2  0
  4 23  1  0
 24 23  1  0
 24 25  1  0
 25 26  1  0
 25 27  1  0
 26 28  1  0
 27 29  1  0
 27 30  1  0
 30 28  1  0
 28 31  1  0
 30 32  1  0
 33 31  1  0
 34 31  1  0
 35 33  2  0
 33 36  1  0
 37 34  2  0
 38 35  1  0
 36 39  2  0
 36 37  1  0
 40 38  2  0
 40 39  1  0
 39 41  1  0
  6 42  1  6
  7 43  1  0
  7 44  1  0
  8 45  1  0
  8 46  1  0
 12 47  1  0
 12 48  1  0
 15 49  1  0
 17 50  1  0
 18 51  1  0
 21 52  1  0
 24 53  1  0
 24 54  1  0
 25 55  1  0
 27 56  1  0
 28 57  1  0
 29 58  1  0
 30 59  1  0
 32 60  1  0
 34 61  1  0
 38 62  1  0
 41 63  1  0
 41 64  1  0
M  CHG  3   5  -1  16   1  19  -1
M  END
>  <EmbedRMS>  (247) 
0.08945762030468818

$$$$

     RDKit          3D

 64 67  0  0  0  0  0  0  0  0999 V2000
   10.2898   43.7673   33.8032 C   0  0  0  0  0  0  0  0  0  0  0  0
   11.4121   43.5788   34.3579 O   0  0  0  0  0  0  0  0  0  0  0  0
    9.3672   42.7297   33.7001 O   0  0  0  0  0  0  0  0  0  0  0  0
    9.8841   41.2326   34.2849 P   0  0  0  0  0  5  0  0  0  0  0  0
   10.3680   41.4681   35.8739 O   0  0  0  0  0  1  0  0  0  0  0  0
    9.9674   45.1106   33.2393 C   0  0  2  0  0  0  0  0  0  0  0  0
   11.0570   46.0572   33.4883 N   0  0  0  0  0  0  0  0  0  0  0  0
    8.6343   45.6639   33.7799 C   0  0  0  0  0  0  0  0  0  0  0  0
    8.6062   45.7593   35.2771 C   0  0  0  0  0  0  0  0  0  0  0  0
    8.4884   44.5892   36.0305 O   0  0  0  0  0  0  0  0  0  0  0  0
    8.7056   46.8830   35.8412 O   0  0  0  0  0  0  0  0  0  0  0  0
    8.4106   44.5787   37.4511 C   0  0  0  0  0  0  0  0  0  0  0  0
    8.3784   43.1523   37.9414 C   0  0  0  0  0  0  0  0  0  0  0  0
    7.4619   42.1965   37.4246 C   0  0  0  0  0  0  0  0  0  0  0  0
    9.3212   42.7474   38.9046 C   0  0  0  0  0  0  0  0  0  0  0  0
    6.4593   42.5531   36.4556 N   0  0  0  0  0  4  0  0  0  0  0  0
    7.5484   40.8607   37.8577 C   0  0  0  0  0  0  0  0  0  0  0  0
    9.3777   41.4205   39.3329 C   0  0  0  0  0  0  0  0  0  0  0  0
    5.7720   43.7398   36.5614 O   0  0  0  0  0  1  0  0  0  0  0  0
    6.0928   41.7218   35.5992 O   0  0  0  0  0  0  0  0  0  0  0  0
    8.4977   40.4779   38.8057 C   0  0  0  0  0  0  0  0  0  0  0  0
    8.8061   40.1904   34.2104 O   0  0  0  0  0  0  0  0  0  0  0  0
   11.2367   40.7882   33.3695 O   0  0  0  0  0  0  0  0  0  0  0  0
   10.9185   40.6890   31.9955 C   0  0  0  0  0  0  0  0  0  0  0  0
   11.5167   39.3801   31.4399 C   0  0  0  0  0  0  0  0  0  0  0  0
   12.7476   39.0862   32.0734 O   0  0  0  0  0  0  0  0  0  0  0  0
   10.6029   38.1890   31.6667 C   0  0  0  0  0  0  0  0  0  0  0  0
   12.9334   37.6798   32.0280 C   0  0  0  0  0  0  0  0  0  0  0  0
    9.6395   38.0776   30.6457 O   0  0  0  0  0  0  0  0  0  0  0  0
   11.5739   37.0154   31.7057 C   0  0  0  0  0  0  0  0  0  0  0  0
   13.4902   37.2179   33.3231 N   0  0  0  0  0  0  0  0  0  0  0  0
   11.6211   36.3376   30.4695 O   0  0  0  0  0  0  0  0  0  0  0  0
   14.4761   36.3274   33.5725 C   0  0  0  0  0  0  0  0  0  0  0  0
   13.1178   37.6317   34.5685 C   0  0  0  0  0  0  0  0  0  0  0  0
   15.2063   35.6140   32.6737 N   0  0  0  0  0  0  0  0  0  0  0  0
   14.6733   36.2278   34.9180 C   0  0  0  0  0  0  0  0  0  0  0  0
   13.8225   37.0459   35.5780 N   0  0  0  0  0  0  0  0  0  0  0  0
   16.1635   34.7595   33.1546 C   0  0  0  0  0  0  0  0  0  0  0  0
   15.6515   35.3495   35.4129 C   0  0  0  0  0  0  0  0  0  0  0  0
   16.3790   34.6311   34.5041 N   0  0  0  0  0  0  0  0  0  0  0  0
   15.9001   35.1936   36.8088 N   0  0  0  0  0  0  0  0  0  0  0  0
    9.8569   44.9924   32.1389 H   0  0  0  0  0  0  0  0  0  0  0  0
   11.2647   46.1120   34.5127 H   0  0  0  0  0  0  0  0  0  0  0  0
   11.9204   45.7280   32.9969 H   0  0  0  0  0  0  0  0  0  0  0  0
    8.4482   46.6669   33.3371 H   0  0  0  0  0  0  0  0  0  0  0  0
    7.8015   45.0042   33.4528 H   0  0  0  0  0  0  0  0  0  0  0  0
    7.4984   45.1134   37.7897 H   0  0  0  0  0  0  0  0  0  0  0  0
    9.2909   45.1195   37.8634 H   0  0  0  0  0  0  0  0  0  0  0  0
   10.0280   43.4570   39.3169 H   0  0  0  0  0  0  0  0  0  0  0  0
    6.8666   40.1145   37.4698 H   0  0  0  0  0  0  0  0  0  0  0  0
   10.1122   41.1210   40.0694 H   0  0  0  0  0  0  0  0  0  0  0  0
    8.5483   39.4481   39.1350 H   0  0  0  0  0  0  0  0  0  0  0  0
   11.4004   41.5438   31.4747 H   0  0  0  0  0  0  0  0  0  0  0  0
    9.8307   40.7392   31.7552 H   0  0  0  0  0  0  0  0  0  0  0  0
   11.6977   39.5047   30.3472 H   0  0  0  0  0  0  0  0  0  0  0  0
   10.1088   38.2629   32.6650 H   0  0  0  0  0  0  0  0  0  0  0  0
   13.6655   37.4543   31.2208 H   0  0  0  0  0  0  0  0  0  0  0  0
    8.8961   38.6893   30.8855 H   0  0  0  0  0  0  0  0  0  0  0  0
   11.2846   36.3059   32.5175 H   0  0  0  0  0  0  0  0  0  0  0  0
   10.8524   35.7094   30.4590 H   0  0  0  0  0  0  0  0  0  0  0  0
   12.3351   38.3588   34.7441 H   0  0  0  0  0  0  0  0  0  0  0  0
   16.7569   34.1789   32.4619 H   0  0  0  0  0  0  0  0  0  0  0  0
   15.3528   35.7359   37.5136 H   0  0  0  0  0  0  0  0  0  0  0  0
   16.6359   34.5317   37.1413 H   0  0  0  0  0  0  0  0  0  0  0  0
  1  2  2  0
  1  3  1  0
  3  4  1  0
  4  5  1  0
  6  1  1  0
  7  6  1  0
  6  8  1  0
  8  9  1  0
  9 10  1  0
  9 11  2  0
 10 12  1  0
 12 13  1  0
 13 14  2  0
 15 13  1  0
 14 16  1  0
 14 17  1  0
 18 15  2  0
 16 19  1  0
 16 20  2  0
 17 21  2  0
 21 18  1  0
  4 22  2  0
  4 23  1  0
 24 23  1  0
 24 25  1  0
 25 26  1  0
 25 27  1  0
 26 28  1  0
 27 29  1  0
 27 30  1  0
 30 28  1  0
 28 31  1  0
 30 32  1  0
 33 31  1  0
 34 31  1  0
 35 33  2  0
 33 36  1  0
 37 34  2  0
 38 35  1  0
 36 39  2  0
 36 37  1  0
 40 38  2  0
 40 39  1  0
 39 41  1  0
  6 42  1  6
  7 43  1  0
  7 44  1  0
  8 45  1  0
  8 46  1  0
 12 47  1  0
 12 48  1  0
 15 49  1  0
 17 50  1  0
 18 51  1  0
 21 52  1  0
 24 53  1  0
 24 54  1  0
 25 55  1  0
 27 56  1  0
 28 57  1  0
 29 58  1  0
 30 59  1  0
 32 60  1  0
 34 61  1  0
 38 62  1  0
 41 63  1  0
 41 64  1  0
M  CHG  3   5  -1  16   1  19  -1
M  END
>  <EmbedRMS>  (248) 
0.09004246468651704

$$$$

     RDKit          3D

 64 67  0  0  0  0  0  0  0  0999 V2000
   10.2860   43.7719   33.8044 C   0  0  0  0  0  0  0  0  0  0  0  0
   11.4086   43.5882   34.3607 O   0  0  0  0  0  0  0  0  0  0  0  0
    9.3671   42.7311   33.6995 O   0  0  0  0  0  0  0  0  0  0  0  0
    9.8850   41.2344   34.2845 P   0  0  0  0  0  5  0  0  0  0  0  0
   10.3655   41.4704   35.8749 O   0  0  0  0  0  1  0  0  0  0  0  0
    9.9532   45.1148   33.2531 C   0  0  2  0  0  0  0  0  0  0  0  0
   11.0711   46.0333   33.4771 N   0  0  0  0  0  0  0  0  0  0  0  0
    8.6590   45.6656   33.8863 C   0  0  0  0  0  0  0  0  0  0  0  0
    8.7680   45.8147   35.3755 C   0  0  0  0  0  0  0  0  0  0  0  0
    9.5042   46.8756   35.9091 O   0  0  0  0  0  0  0  0  0  0  0  0
    8.2223   44.9656   36.1322 O   0  0  0  0  0  0  0  0  0  0  0  0
    9.6680   47.0700   37.3095 C   0  0  0  0  0  0  0  0  0  0  0  0
   10.5782   48.2461   37.5467 C   0  0  0  0  0  0  0  0  0  0  0  0
   11.9941   48.1203   37.5632 C   0  0  0  0  0  0  0  0  0  0  0  0
    9.9977   49.5112   37.7485 C   0  0  0  0  0  0  0  0  0  0  0  0
   12.6541   46.8656   37.3131 N   0  0  0  0  0  4  0  0  0  0  0  0
   12.7771   49.2553   37.8400 C   0  0  0  0  0  0  0  0  0  0  0  0
   10.7947   50.6276   38.0042 C   0  0  0  0  0  0  0  0  0  0  0  0
   13.8760   46.6060   37.8900 O   0  0  0  0  0  1  0  0  0  0  0  0
   12.2240   46.0808   36.4434 O   0  0  0  0  0  0  0  0  0  0  0  0
   12.1811   50.4985   38.0573 C   0  0  0  0  0  0  0  0  0  0  0  0
    8.8076   40.1914   34.2089 O   0  0  0  0  0  0  0  0  0  0  0  0
   11.2368   40.7904   33.3691 O   0  0  0  0  0  0  0  0  0  0  0  0
   10.9155   40.6898   31.9960 C   0  0  0  0  0  0  0  0  0  0  0  0
   11.5270   39.3898   31.4374 C   0  0  0  0  0  0  0  0  0  0  0  0
   12.7507   39.0916   32.0839 O   0  0  0  0  0  0  0  0  0  0  0  0
   10.6122   38.1916   31.6452 C   0  0  0  0  0  0  0  0  0  0  0  0
   12.9429   37.6853   32.0295 C   0  0  0  0  0  0  0  0  0  0  0  0
    9.6070   38.0858   30.6603 O   0  0  0  0  0  0  0  0  0  0  0  0
   11.5845   37.0186   31.6879 C   0  0  0  0  0  0  0  0  0  0  0  0
   13.4899   37.2163   33.3250 N   0  0  0  0  0  0  0  0  0  0  0  0
   11.6201   36.3063   30.4693 O   0  0  0  0  0  0  0  0  0  0  0  0
   14.4759   36.3263   33.5739 C   0  0  0  0  0  0  0  0  0  0  0  0
   13.1176   37.6307   34.5699 C   0  0  0  0  0  0  0  0  0  0  0  0
   15.2065   35.6139   32.6746 N   0  0  0  0  0  0  0  0  0  0  0  0
   14.6731   36.2267   34.9191 C   0  0  0  0  0  0  0  0  0  0  0  0
   13.8224   37.0450   35.5792 N   0  0  0  0  0  0  0  0  0  0  0  0
   16.1640   34.7596   33.1551 C   0  0  0  0  0  0  0  0  0  0  0  0
   15.6517   35.3489   35.4136 C   0  0  0  0  0  0  0  0  0  0  0  0
   16.3795   34.6310   34.5046 N   0  0  0  0  0  0  0  0  0  0  0  0
   15.9006   35.1931   36.8094 N   0  0  0  0  0  0  0  0  0  0  0  0
    9.7854   45.0058   32.1579 H   0  0  0  0  0  0  0  0  0  0  0  0
   11.8841   45.7117   32.9016 H   0  0  0  0  0  0  0  0  0  0  0  0
   10.8114   46.9716   33.0943 H   0  0  0  0  0  0  0  0  0  0  0  0
    7.8080   44.9932   33.6392 H   0  0  0  0  0  0  0  0  0  0  0  0
    8.4237   46.6576   33.4445 H   0  0  0  0  0  0  0  0  0  0  0  0
   10.0854   46.1550   37.7819 H   0  0  0  0  0  0  0  0  0  0  0  0
    8.6733   47.2480   37.7744 H   0  0  0  0  0  0  0  0  0  0  0  0
    8.9217   49.6328   37.7183 H   0  0  0  0  0  0  0  0  0  0  0  0
   13.8569   49.1826   37.8665 H   0  0  0  0  0  0  0  0  0  0  0  0
   10.3355   51.5944   38.1655 H   0  0  0  0  0  0  0  0  0  0  0  0
   12.7969   51.3654   38.2592 H   0  0  0  0  0  0  0  0  0  0  0  0
    9.8254   40.7190   31.7587 H   0  0  0  0  0  0  0  0  0  0  0  0
   11.3825   41.5526   31.4747 H   0  0  0  0  0  0  0  0  0  0  0  0
   11.7318   39.5338   30.3520 H   0  0  0  0  0  0  0  0  0  0  0  0
   10.1215   38.2682   32.6413 H   0  0  0  0  0  0  0  0  0  0  0  0
   13.6882   37.4708   31.2319 H   0  0  0  0  0  0  0  0  0  0  0  0
   10.0257   38.1751   29.7656 H   0  0  0  0  0  0  0  0  0  0  0  0
   11.2796   36.3123   32.4915 H   0  0  0  0  0  0  0  0  0  0  0  0
   11.9872   36.9099   29.7714 H   0  0  0  0  0  0  0  0  0  0  0  0
   12.3365   38.3596   34.7453 H   0  0  0  0  0  0  0  0  0  0  0  0
   16.7576   34.1794   32.4622 H   0  0  0  0  0  0  0  0  0  0  0  0
   15.3532   35.7351   37.5143 H   0  0  0  0  0  0  0  0  0  0  0  0
   16.6368   34.5316   37.1418 H   0  0  0  0  0  0  0  0  0  0  0  0
  1  2  2  0
  1  3  1  0
  3  4  1  0
  4  5  1  0
  6  1  1  0
  7  6  1  0
  6  8  1  0
  8  9  1  0
  9 10  1  0
  9 11  2  0
 10 12  1  0
 12 13  1  0
 13 14  2  0
 15 13  1  0
 14 16  1  0
 14 17  1  0
 18 15  2  0
 16 19  1  0
 16 20  2  0
 17 21  2  0
 21 18  1  0
  4 22  2  0
  4 23  1  0
 24 23  1  0
 24 25  1  0
 25 26  1  0
 25 27  1  0
 26 28  1  0
 27 29  1  0
 27 30  1  0
 30 28  1  0
 28 31  1  0
 30 32  1  0
 33 31  1  0
 34 31  1  0
 35 33  2  0
 33 36  1  0
 37 34  2  0
 38 35  1  0
 36 39  2  0
 36 37  1  0
 40 38  2  0
 40 39  1  0
 39 41  1  0
  6 42  1  6
  7 43  1  0
  7 44  1  0
  8 45  1  0
  8 46  1  0
 12 47  1  0
 12 48  1  0
 15 49  1  0
 17 50  1  0
 18 51  1  0
 21 52  1  0
 24 53  1  0
 24 54  1  0
 25 55  1  0
 27 56  1  0
 28 57  1  0
 29 58  1  0
 30 59  1  0
 32 60  1  0
 34 61  1  0
 38 62  1  0
 41 63  1  0
 41 64  1  0
M  CHG  3   5  -1  16   1  19  -1
M  END
>  <EmbedRMS>  (249) 
0.08697072636560989

$$$$

     RDKit          3D

 64 67  0  0  0  0  0  0  0  0999 V2000
   10.2888   43.7677   33.8057 C   0  0  0  0  0  0  0  0  0  0  0  0
   11.4121   43.5785   34.3584 O   0  0  0  0  0  0  0  0  0  0  0  0
    9.3668   42.7303   33.7007 O   0  0  0  0  0  0  0  0  0  0  0  0
    9.8839   41.2330   34.2844 P   0  0  0  0  0  5  0  0  0  0  0  0
   10.3649   41.4681   35.8745 O   0  0  0  0  0  1  0  0  0  0  0  0
    9.9609   45.1141   33.2525 C   0  0  2  0  0  0  0  0  0  0  0  0
   11.0631   46.0527   33.4750 N   0  0  0  0  0  0  0  0  0  0  0  0
    8.6465   45.6746   33.8336 C   0  0  0  0  0  0  0  0  0  0  0  0
    8.6185   45.6521   35.3338 C   0  0  0  0  0  0  0  0  0  0  0  0
    9.2720   46.6566   36.0557 O   0  0  0  0  0  0  0  0  0  0  0  0
    8.0418   44.7026   35.9312 O   0  0  0  0  0  0  0  0  0  0  0  0
    9.5030   46.5773   37.4607 C   0  0  0  0  0  0  0  0  0  0  0  0
   10.5722   45.5475   37.7481 C   0  0  0  0  0  0  0  0  0  0  0  0
   10.2873   44.2761   38.3122 C   0  0  0  0  0  0  0  0  0  0  0  0
   11.8824   45.8274   37.3209 C   0  0  0  0  0  0  0  0  0  0  0  0
    8.9825   43.9385   38.8031 N   0  0  0  0  0  4  0  0  0  0  0  0
   11.3102   43.3171   38.3994 C   0  0  0  0  0  0  0  0  0  0  0  0
   12.8891   44.8671   37.4294 C   0  0  0  0  0  0  0  0  0  0  0  0
    8.4720   42.6828   38.5681 O   0  0  0  0  0  1  0  0  0  0  0  0
    8.4319   44.6620   39.6582 O   0  0  0  0  0  0  0  0  0  0  0  0
   12.6018   43.6114   37.9610 C   0  0  0  0  0  0  0  0  0  0  0  0
    8.8062   40.1906   34.2087 O   0  0  0  0  0  0  0  0  0  0  0  0
   11.2358   40.7900   33.3679 O   0  0  0  0  0  0  0  0  0  0  0  0
   10.9133   40.6860   31.9951 C   0  0  0  0  0  0  0  0  0  0  0  0
   11.5168   39.3798   31.4411 C   0  0  0  0  0  0  0  0  0  0  0  0
   12.7487   39.0887   32.0763 O   0  0  0  0  0  0  0  0  0  0  0  0
   10.6051   38.1877   31.6660 C   0  0  0  0  0  0  0  0  0  0  0  0
   12.9412   37.6830   32.0278 C   0  0  0  0  0  0  0  0  0  0  0  0
    9.6359   38.0931   30.6503 O   0  0  0  0  0  0  0  0  0  0  0  0
   11.5827   37.0180   31.6937 C   0  0  0  0  0  0  0  0  0  0  0  0
   13.4909   37.2177   33.3240 N   0  0  0  0  0  0  0  0  0  0  0  0
   11.6141   36.3181   30.4675 O   0  0  0  0  0  0  0  0  0  0  0  0
   14.4762   36.3270   33.5733 C   0  0  0  0  0  0  0  0  0  0  0  0
   13.1180   37.6318   34.5689 C   0  0  0  0  0  0  0  0  0  0  0  0
   15.2067   35.6140   32.6744 N   0  0  0  0  0  0  0  0  0  0  0  0
   14.6731   36.2273   34.9187 C   0  0  0  0  0  0  0  0  0  0  0  0
   13.8223   37.0457   35.5785 N   0  0  0  0  0  0  0  0  0  0  0  0
   16.1638   34.7595   33.1551 C   0  0  0  0  0  0  0  0  0  0  0  0
   15.6515   35.3492   35.4135 C   0  0  0  0  0  0  0  0  0  0  0  0
   16.3792   34.6310   34.5046 N   0  0  0  0  0  0  0  0  0  0  0  0
   15.9002   35.1934   36.8093 N   0  0  0  0  0  0  0  0  0  0  0  0
    9.8199   45.0016   32.1550 H   0  0  0  0  0  0  0  0  0  0  0  0
   11.3116   46.0932   34.4895 H   0  0  0  0  0  0  0  0  0  0  0  0
   11.9061   45.7239   32.9492 H   0  0  0  0  0  0  0  0  0  0  0  0
    7.7912   45.0801   33.4432 H   0  0  0  0  0  0  0  0  0  0  0  0
    8.5033   46.7196   33.4838 H   0  0  0  0  0  0  0  0  0  0  0  0
    9.8564   47.5686   37.8155 H   0  0  0  0  0  0  0  0  0  0  0  0
    8.5464   46.3790   37.9805 H   0  0  0  0  0  0  0  0  0  0  0  0
   12.1189   46.7873   36.8779 H   0  0  0  0  0  0  0  0  0  0  0  0
   11.1077   42.3413   38.8226 H   0  0  0  0  0  0  0  0  0  0  0  0
   13.8911   45.0931   37.0881 H   0  0  0  0  0  0  0  0  0  0  0  0
   13.3821   42.8652   38.0374 H   0  0  0  0  0  0  0  0  0  0  0  0
   11.3858   41.5435   31.4701 H   0  0  0  0  0  0  0  0  0  0  0  0
    9.8234   40.7212   31.7581 H   0  0  0  0  0  0  0  0  0  0  0  0
   11.6992   39.5069   30.3490 H   0  0  0  0  0  0  0  0  0  0  0  0
   10.1120   38.2721   32.6632 H   0  0  0  0  0  0  0  0  0  0  0  0
   13.6816   37.4634   31.2270 H   0  0  0  0  0  0  0  0  0  0  0  0
    9.0037   37.3828   30.9349 H   0  0  0  0  0  0  0  0  0  0  0  0
   11.2847   36.3041   32.4929 H   0  0  0  0  0  0  0  0  0  0  0  0
   11.8850   36.9591   29.7589 H   0  0  0  0  0  0  0  0  0  0  0  0
   12.3365   38.3602   34.7442 H   0  0  0  0  0  0  0  0  0  0  0  0
   16.7574   34.1791   32.4623 H   0  0  0  0  0  0  0  0  0  0  0  0
   15.3529   35.7356   37.5141 H   0  0  0  0  0  0  0  0  0  0  0  0
   16.6362   34.5317   37.1418 H   0  0  0  0  0  0  0  0  0  0  0  0
  1  2  2  0
  1  3  1  0
  3  4  1  0
  4  5  1  0
  6  1  1  0
  7  6  1  0
  6  8  1  0
  8  9  1  0
  9 10  1  0
  9 11  2  0
 10 12  1  0
 12 13  1  0
 13 14  2  0
 15 13  1  0
 14 16  1  0
 14 17  1  0
 18 15  2  0
 16 19  1  0
 16 20  2  0
 17 21  2  0
 21 18  1  0
  4 22  2  0
  4 23  1  0
 24 23  1  0
 24 25  1  0
 25 26  1  0
 25 27  1  0
 26 28  1  0
 27 29  1  0
 27 30  1  0
 30 28  1  0
 28 31  1  0
 30 32  1  0
 33 31  1  0
 34 31  1  0
 35 33  2  0
 33 36  1  0
 37 34  2  0
 38 35  1  0
 36 39  2  0
 36 37  1  0
 40 38  2  0
 40 39  1  0
 39 41  1  0
  6 42  1  6
  7 43  1  0
  7 44  1  0
  8 45  1  0
  8 46  1  0
 12 47  1  0
 12 48  1  0
 15 49  1  0
 17 50  1  0
 18 51  1  0
 21 52  1  0
 24 53  1  0
 24 54  1  0
 25 55  1  0
 27 56  1  0
 28 57  1  0
 29 58  1  0
 30 59  1  0
 32 60  1  0
 34 61  1  0
 38 62  1  0
 41 63  1  0
 41 64  1  0
M  CHG  3   5  -1  16   1  19  -1
M  END
>  <EmbedRMS>  (250) 
0.08849869509870634

$$$$

     RDKit          3D

 64 67  0  0  0  0  0  0  0  0999 V2000
   10.2862   43.7710   33.8105 C   0  0  0  0  0  0  0  0  0  0  0  0
   11.4100   43.5818   34.3622 O   0  0  0  0  0  0  0  0  0  0  0  0
    9.3668   42.7309   33.7022 O   0  0  0  0  0  0  0  0  0  0  0  0
    9.8849   41.2328   34.2833 P   0  0  0  0  0  5  0  0  0  0  0  0
   10.3663   41.4671   35.8738 O   0  0  0  0  0  1  0  0  0  0  0  0
    9.9620   45.1113   33.2454 C   0  0  2  0  0  0  0  0  0  0  0  0
   11.0648   46.0484   33.4752 N   0  0  0  0  0  0  0  0  0  0  0  0
    8.6629   45.6569   33.8624 C   0  0  0  0  0  0  0  0  0  0  0  0
    8.2798   46.9616   33.2359 C   0  0  0  0  0  0  0  0  0  0  0  0
    7.8783   46.9846   31.8981 O   0  0  0  0  0  0  0  0  0  0  0  0
    8.3503   48.0277   33.9064 O   0  0  0  0  0  0  0  0  0  0  0  0
    7.5829   48.1902   31.2010 C   0  0  0  0  0  0  0  0  0  0  0  0
    7.3192   47.8824   29.7482 C   0  0  0  0  0  0  0  0  0  0  0  0
    8.2525   47.1699   28.9448 C   0  0  0  0  0  0  0  0  0  0  0  0
    6.0945   48.2848   29.1838 C   0  0  0  0  0  0  0  0  0  0  0  0
    9.5301   46.7413   29.4524 N   0  0  0  0  0  4  0  0  0  0  0  0
    7.9118   46.8557   27.6171 C   0  0  0  0  0  0  0  0  0  0  0  0
    5.7850   47.9764   27.8586 C   0  0  0  0  0  0  0  0  0  0  0  0
   10.1192   45.6016   28.9549 O   0  0  0  0  0  1  0  0  0  0  0  0
   10.1901   47.4700   30.2208 O   0  0  0  0  0  0  0  0  0  0  0  0
    6.6895   47.2592   27.0786 C   0  0  0  0  0  0  0  0  0  0  0  0
    8.8070   40.1904   34.2076 O   0  0  0  0  0  0  0  0  0  0  0  0
   11.2367   40.7902   33.3659 O   0  0  0  0  0  0  0  0  0  0  0  0
   10.9141   40.6851   31.9930 C   0  0  0  0  0  0  0  0  0  0  0  0
   11.5165   39.3774   31.4393 C   0  0  0  0  0  0  0  0  0  0  0  0
   12.7471   39.0855   32.0739 O   0  0  0  0  0  0  0  0  0  0  0  0
   10.6047   38.1867   31.6669 C   0  0  0  0  0  0  0  0  0  0  0  0
   12.9345   37.6791   32.0282 C   0  0  0  0  0  0  0  0  0  0  0  0
    9.6378   38.0917   30.6488 O   0  0  0  0  0  0  0  0  0  0  0  0
   11.5761   37.0129   31.7056 C   0  0  0  0  0  0  0  0  0  0  0  0
   13.4909   37.2177   33.3233 N   0  0  0  0  0  0  0  0  0  0  0  0
   11.6234   36.3371   30.4684 O   0  0  0  0  0  0  0  0  0  0  0  0
   14.4765   36.3272   33.5727 C   0  0  0  0  0  0  0  0  0  0  0  0
   13.1182   37.6316   34.5685 C   0  0  0  0  0  0  0  0  0  0  0  0
   15.2066   35.6138   32.6739 N   0  0  0  0  0  0  0  0  0  0  0  0
   14.6736   36.2276   34.9182 C   0  0  0  0  0  0  0  0  0  0  0  0
   13.8227   37.0458   35.5781 N   0  0  0  0  0  0  0  0  0  0  0  0
   16.1638   34.7593   33.1547 C   0  0  0  0  0  0  0  0  0  0  0  0
   15.6517   35.3493   35.4131 C   0  0  0  0  0  0  0  0  0  0  0  0
   16.3792   34.6309   34.5042 N   0  0  0  0  0  0  0  0  0  0  0  0
   15.9003   35.1934   36.8089 N   0  0  0  0  0  0  0  0  0  0  0  0
    9.8172   44.9906   32.1487 H   0  0  0  0  0  0  0  0  0  0  0  0
   11.2728   46.1185   34.4989 H   0  0  0  0  0  0  0  0  0  0  0  0
   11.9223   45.7043   32.9838 H   0  0  0  0  0  0  0  0  0  0  0  0
    7.8331   44.9370   33.6931 H   0  0  0  0  0  0  0  0  0  0  0  0
    8.7859   45.7839   34.9610 H   0  0  0  0  0  0  0  0  0  0  0  0
    8.4322   48.9016   31.2800 H   0  0  0  0  0  0  0  0  0  0  0  0
    6.7007   48.6717   31.6771 H   0  0  0  0  0  0  0  0  0  0  0  0
    5.3689   48.8319   29.7730 H   0  0  0  0  0  0  0  0  0  0  0  0
    8.6041   46.3095   26.9890 H   0  0  0  0  0  0  0  0  0  0  0  0
    4.8381   48.2891   27.4376 H   0  0  0  0  0  0  0  0  0  0  0  0
    6.4448   47.0177   26.0522 H   0  0  0  0  0  0  0  0  0  0  0  0
   11.3871   41.5417   31.4670 H   0  0  0  0  0  0  0  0  0  0  0  0
    9.8241   40.7214   31.7563 H   0  0  0  0  0  0  0  0  0  0  0  0
   11.6986   39.5013   30.3467 H   0  0  0  0  0  0  0  0  0  0  0  0
   10.1095   38.2771   32.6628 H   0  0  0  0  0  0  0  0  0  0  0  0
   13.6672   37.4546   31.2212 H   0  0  0  0  0  0  0  0  0  0  0  0
    8.9779   37.4157   30.9533 H   0  0  0  0  0  0  0  0  0  0  0  0
   11.2860   36.3041   32.5177 H   0  0  0  0  0  0  0  0  0  0  0  0
   10.8690   35.6918   30.4657 H   0  0  0  0  0  0  0  0  0  0  0  0
   12.3356   38.3587   34.7439 H   0  0  0  0  0  0  0  0  0  0  0  0
   16.7572   34.1786   32.4620 H   0  0  0  0  0  0  0  0  0  0  0  0
   16.6361   34.5315   37.1415 H   0  0  0  0  0  0  0  0  0  0  0  0
   15.3530   35.7358   37.5138 H   0  0  0  0  0  0  0  0  0  0  0  0
  1  2  2  0
  1  3  1  0
  3  4  1  0
  4  5  1  0
  6  1  1  0
  7  6  1  0
  6  8  1  0
  8  9  1  0
  9 10  1  0
  9 11  2  0
 10 12  1  0
 12 13  1  0
 13 14  2  0
 15 13  1  0
 14 16  1  0
 14 17  1  0
 18 15  2  0
 16 19  1  0
 16 20  2  0
 17 21  2  0
 21 18  1  0
  4 22  2  0
  4 23  1  0
 24 23  1  0
 24 25  1  0
 25 26  1  0
 25 27  1  0
 26 28  1  0
 27 29  1  0
 27 30  1  0
 30 28  1  0
 28 31  1  0
 30 32  1  0
 33 31  1  0
 34 31  1  0
 35 33  2  0
 33 36  1  0
 37 34  2  0
 38 35  1  0
 36 39  2  0
 36 37  1  0
 40 38  2  0
 40 39  1  0
 39 41  1  0
  6 42  1  6
  7 43  1  0
  7 44  1  0
  8 45  1  0
  8 46  1  0
 12 47  1  0
 12 48  1  0
 15 49  1  0
 17 50  1  0
 18 51  1  0
 21 52  1  0
 24 53  1  0
 24 54  1  0
 25 55  1  0
 27 56  1  0
 28 57  1  0
 29 58  1  0
 30 59  1  0
 32 60  1  0
 34 61  1  0
 38 62  1  0
 41 63  1  0
 41 64  1  0
M  CHG  3   5  -1  16   1  19  -1
M  END
>  <EmbedRMS>  (251) 
0.08949189843438911

$$$$

     RDKit          3D

 64 67  0  0  0  0  0  0  0  0999 V2000
   10.2883   43.7706   33.8004 C   0  0  0  0  0  0  0  0  0  0  0  0
   11.4104   43.5873   34.3576 O   0  0  0  0  0  0  0  0  0  0  0  0
    9.3682   42.7305   33.6978 O   0  0  0  0  0  0  0  0  0  0  0  0
    9.8847   41.2345   34.2850 P   0  0  0  0  0  5  0  0  0  0  0  0
   10.3647   41.4718   35.8754 O   0  0  0  0  0  1  0  0  0  0  0  0
    9.9523   45.1152   33.2552 C   0  0  2  0  0  0  0  0  0  0  0  0
   11.0690   46.0347   33.4804 N   0  0  0  0  0  0  0  0  0  0  0  0
    8.6595   45.6619   33.8948 C   0  0  0  0  0  0  0  0  0  0  0  0
    8.7949   45.8724   35.3745 C   0  0  0  0  0  0  0  0  0  0  0  0
    8.8435   44.7617   36.2241 O   0  0  0  0  0  0  0  0  0  0  0  0
    8.8794   47.0424   35.8379 O   0  0  0  0  0  0  0  0  0  0  0  0
    8.8891   44.8630   37.6451 C   0  0  0  0  0  0  0  0  0  0  0  0
    7.5538   45.3134   38.1890 C   0  0  0  0  0  0  0  0  0  0  0  0
    6.3392   44.6586   37.8486 C   0  0  0  0  0  0  0  0  0  0  0  0
    7.5144   46.4413   39.0290 C   0  0  0  0  0  0  0  0  0  0  0  0
    6.3149   43.4898   37.0081 N   0  0  0  0  0  4  0  0  0  0  0  0
    5.1240   45.1765   38.3335 C   0  0  0  0  0  0  0  0  0  0  0  0
    6.2991   46.9285   39.5112 C   0  0  0  0  0  0  0  0  0  0  0  0
    7.2685   42.5076   37.1413 O   0  0  0  0  0  1  0  0  0  0  0  0
    5.3403   43.2802   36.2565 O   0  0  0  0  0  0  0  0  0  0  0  0
    5.1060   46.3004   39.1603 C   0  0  0  0  0  0  0  0  0  0  0  0
    8.8070   40.1919   34.2097 O   0  0  0  0  0  0  0  0  0  0  0  0
   11.2365   40.7894   33.3699 O   0  0  0  0  0  0  0  0  0  0  0  0
   10.9155   40.6896   31.9967 C   0  0  0  0  0  0  0  0  0  0  0  0
   11.5269   39.3899   31.4376 C   0  0  0  0  0  0  0  0  0  0  0  0
   12.7508   39.0916   32.0839 O   0  0  0  0  0  0  0  0  0  0  0  0
   10.6122   38.1916   31.6452 C   0  0  0  0  0  0  0  0  0  0  0  0
   12.9429   37.6853   32.0295 C   0  0  0  0  0  0  0  0  0  0  0  0
    9.6070   38.0858   30.6603 O   0  0  0  0  0  0  0  0  0  0  0  0
   11.5845   37.0186   31.6880 C   0  0  0  0  0  0  0  0  0  0  0  0
   13.4899   37.2163   33.3250 N   0  0  0  0  0  0  0  0  0  0  0  0
   11.6201   36.3063   30.4693 O   0  0  0  0  0  0  0  0  0  0  0  0
   14.4759   36.3263   33.5738 C   0  0  0  0  0  0  0  0  0  0  0  0
   13.1175   37.6307   34.5699 C   0  0  0  0  0  0  0  0  0  0  0  0
   15.2065   35.6139   32.6746 N   0  0  0  0  0  0  0  0  0  0  0  0
   14.6731   36.2267   34.9191 C   0  0  0  0  0  0  0  0  0  0  0  0
   13.8224   37.0450   35.5792 N   0  0  0  0  0  0  0  0  0  0  0  0
   16.1640   34.7596   33.1551 C   0  0  0  0  0  0  0  0  0  0  0  0
   15.6517   35.3489   35.4136 C   0  0  0  0  0  0  0  0  0  0  0  0
   16.3795   34.6310   34.5046 N   0  0  0  0  0  0  0  0  0  0  0  0
   15.9006   35.1931   36.8094 N   0  0  0  0  0  0  0  0  0  0  0  0
    9.7811   45.0091   32.1602 H   0  0  0  0  0  0  0  0  0  0  0  0
   11.8797   45.7185   32.8987 H   0  0  0  0  0  0  0  0  0  0  0  0
   10.8046   46.9744   33.1041 H   0  0  0  0  0  0  0  0  0  0  0  0
    8.3862   46.6224   33.4055 H   0  0  0  0  0  0  0  0  0  0  0  0
    7.8204   44.9568   33.7091 H   0  0  0  0  0  0  0  0  0  0  0  0
    9.7094   45.5549   37.9376 H   0  0  0  0  0  0  0  0  0  0  0  0
    9.1449   43.8732   38.0751 H   0  0  0  0  0  0  0  0  0  0  0  0
    8.4271   46.9554   39.3042 H   0  0  0  0  0  0  0  0  0  0  0  0
    4.1860   44.6972   38.0828 H   0  0  0  0  0  0  0  0  0  0  0  0
    6.2823   47.7996   40.1535 H   0  0  0  0  0  0  0  0  0  0  0  0
    4.1644   46.6829   39.5324 H   0  0  0  0  0  0  0  0  0  0  0  0
   11.3827   41.5527   31.4759 H   0  0  0  0  0  0  0  0  0  0  0  0
    9.8254   40.7190   31.7592 H   0  0  0  0  0  0  0  0  0  0  0  0
   11.7317   39.5342   30.3522 H   0  0  0  0  0  0  0  0  0  0  0  0
   10.1214   38.2681   32.6413 H   0  0  0  0  0  0  0  0  0  0  0  0
   13.6882   37.4708   31.2319 H   0  0  0  0  0  0  0  0  0  0  0  0
   10.0257   38.1753   29.7656 H   0  0  0  0  0  0  0  0  0  0  0  0
   11.2796   36.3123   32.4916 H   0  0  0  0  0  0  0  0  0  0  0  0
   11.9872   36.9099   29.7715 H   0  0  0  0  0  0  0  0  0  0  0  0
   12.3365   38.3596   34.7453 H   0  0  0  0  0  0  0  0  0  0  0  0
   16.7577   34.1795   32.4622 H   0  0  0  0  0  0  0  0  0  0  0  0
   15.3532   35.7351   37.5143 H   0  0  0  0  0  0  0  0  0  0  0  0
   16.6368   34.5316   37.1418 H   0  0  0  0  0  0  0  0  0  0  0  0
  1  2  2  0
  1  3  1  0
  3  4  1  0
  4  5  1  0
  6  1  1  0
  7  6  1  0
  6  8  1  0
  8  9  1  0
  9 10  1  0
  9 11  2  0
 10 12  1  0
 12 13  1  0
 13 14  2  0
 15 13  1  0
 14 16  1  0
 14 17  1  0
 18 15  2  0
 16 19  1  0
 16 20  2  0
 17 21  2  0
 21 18  1  0
  4 22  2  0
  4 23  1  0
 24 23  1  0
 24 25  1  0
 25 26  1  0
 25 27  1  0
 26 28  1  0
 27 29  1  0
 27 30  1  0
 30 28  1  0
 28 31  1  0
 30 32  1  0
 33 31  1  0
 34 31  1  0
 35 33  2  0
 33 36  1  0
 37 34  2  0
 38 35  1  0
 36 39  2  0
 36 37  1  0
 40 38  2  0
 40 39  1  0
 39 41  1  0
  6 42  1  6
  7 43  1  0
  7 44  1  0
  8 45  1  0
  8 46  1  0
 12 47  1  0
 12 48  1  0
 15 49  1  0
 17 50  1  0
 18 51  1  0
 21 52  1  0
 24 53  1  0
 24 54  1  0
 25 55  1  0
 27 56  1  0
 28 57  1  0
 29 58  1  0
 30 59  1  0
 32 60  1  0
 34 61  1  0
 38 62  1  0
 41 63  1  0
 41 64  1  0
M  CHG  3   5  -1  16   1  19  -1
M  END
>  <EmbedRMS>  (252) 
0.08703587787230788

$$$$

     RDKit          3D

 64 67  0  0  0  0  0  0  0  0999 V2000
   10.2851   43.7723   33.8062 C   0  0  0  0  0  0  0  0  0  0  0  0
   11.4104   43.5875   34.3563 O   0  0  0  0  0  0  0  0  0  0  0  0
    9.3664   42.7314   33.7009 O   0  0  0  0  0  0  0  0  0  0  0  0
    9.8851   41.2343   34.2843 P   0  0  0  0  0  5  0  0  0  0  0  0
   10.3660   41.4700   35.8747 O   0  0  0  0  0  1  0  0  0  0  0  0
    9.9574   45.1113   33.2459 C   0  0  2  0  0  0  0  0  0  0  0  0
   11.0681   46.0355   33.4838 N   0  0  0  0  0  0  0  0  0  0  0  0
    8.6204   45.6615   33.7942 C   0  0  0  0  0  0  0  0  0  0  0  0
    8.5529   45.6801   35.2944 C   0  0  0  0  0  0  0  0  0  0  0  0
    9.1008   46.7549   35.9998 O   0  0  0  0  0  0  0  0  0  0  0  0
    8.0185   44.7160   35.9079 O   0  0  0  0  0  0  0  0  0  0  0  0
    9.0123   46.8690   37.4161 C   0  0  0  0  0  0  0  0  0  0  0  0
    9.7901   48.0764   37.8696 C   0  0  0  0  0  0  0  0  0  0  0  0
   11.1720   48.0146   38.1974 C   0  0  0  0  0  0  0  0  0  0  0  0
    9.1167   49.3079   37.9584 C   0  0  0  0  0  0  0  0  0  0  0  0
   11.9335   46.7988   38.0794 N   0  0  0  0  0  4  0  0  0  0  0  0
   11.8164   49.1760   38.6600 C   0  0  0  0  0  0  0  0  0  0  0  0
    9.7804   50.4519   38.4030 C   0  0  0  0  0  0  0  0  0  0  0  0
   13.0049   46.5767   38.9138 O   0  0  0  0  0  1  0  0  0  0  0  0
   11.7525   46.0239   37.1183 O   0  0  0  0  0  0  0  0  0  0  0  0
   11.1254   50.3844   38.7603 C   0  0  0  0  0  0  0  0  0  0  0  0
    8.8076   40.1913   34.2090 O   0  0  0  0  0  0  0  0  0  0  0  0
   11.2367   40.7903   33.3681 O   0  0  0  0  0  0  0  0  0  0  0  0
   10.9150   40.6882   31.9951 C   0  0  0  0  0  0  0  0  0  0  0  0
   11.5259   39.3871   31.4366 C   0  0  0  0  0  0  0  0  0  0  0  0
   12.7490   39.0894   32.0820 O   0  0  0  0  0  0  0  0  0  0  0  0
   10.6122   38.1893   31.6461 C   0  0  0  0  0  0  0  0  0  0  0  0
   12.9373   37.6828   32.0301 C   0  0  0  0  0  0  0  0  0  0  0  0
    9.6150   38.0839   30.6538 O   0  0  0  0  0  0  0  0  0  0  0  0
   11.5793   37.0137   31.7014 C   0  0  0  0  0  0  0  0  0  0  0  0
   13.4906   37.2170   33.3243 N   0  0  0  0  0  0  0  0  0  0  0  0
   11.6217   36.3253   30.4725 O   0  0  0  0  0  0  0  0  0  0  0  0
   14.4763   36.3267   33.5731 C   0  0  0  0  0  0  0  0  0  0  0  0
   13.1181   37.6308   34.5694 C   0  0  0  0  0  0  0  0  0  0  0  0
   15.2065   35.6137   32.6740 N   0  0  0  0  0  0  0  0  0  0  0  0
   14.6735   36.2270   34.9185 C   0  0  0  0  0  0  0  0  0  0  0  0
   13.8229   37.0451   35.5788 N   0  0  0  0  0  0  0  0  0  0  0  0
   16.1639   34.7593   33.1547 C   0  0  0  0  0  0  0  0  0  0  0  0
   15.6518   35.3489   35.4132 C   0  0  0  0  0  0  0  0  0  0  0  0
   16.3794   34.6308   34.5042 N   0  0  0  0  0  0  0  0  0  0  0  0
   15.9006   35.1931   36.8090 N   0  0  0  0  0  0  0  0  0  0  0  0
    9.8460   44.9862   32.1464 H   0  0  0  0  0  0  0  0  0  0  0  0
   11.1470   46.2478   34.5036 H   0  0  0  0  0  0  0  0  0  0  0  0
   10.8650   46.9370   32.9936 H   0  0  0  0  0  0  0  0  0  0  0  0
    8.4590   46.6927   33.4131 H   0  0  0  0  0  0  0  0  0  0  0  0
    7.7845   45.0412   33.4021 H   0  0  0  0  0  0  0  0  0  0  0  0
    9.3935   45.9485   37.9072 H   0  0  0  0  0  0  0  0  0  0  0  0
    7.9438   46.9675   37.7090 H   0  0  0  0  0  0  0  0  0  0  0  0
    8.0692   49.3808   37.6922 H   0  0  0  0  0  0  0  0  0  0  0  0
   12.8660   49.1515   38.9241 H   0  0  0  0  0  0  0  0  0  0  0  0
    9.2488   51.3921   38.4744 H   0  0  0  0  0  0  0  0  0  0  0  0
   11.6372   51.2726   39.1080 H   0  0  0  0  0  0  0  0  0  0  0  0
    9.8248   40.7179   31.7584 H   0  0  0  0  0  0  0  0  0  0  0  0
   11.3821   41.5504   31.4727 H   0  0  0  0  0  0  0  0  0  0  0  0
   11.7290   39.5288   30.3505 H   0  0  0  0  0  0  0  0  0  0  0  0
   10.1138   38.2718   32.6380 H   0  0  0  0  0  0  0  0  0  0  0  0
   13.6725   37.4638   31.2240 H   0  0  0  0  0  0  0  0  0  0  0  0
   10.0536   38.1085   29.7638 H   0  0  0  0  0  0  0  0  0  0  0  0
   11.2646   36.3135   32.5107 H   0  0  0  0  0  0  0  0  0  0  0  0
   12.1551   35.5033   30.6315 H   0  0  0  0  0  0  0  0  0  0  0  0
   12.3362   38.3586   34.7451 H   0  0  0  0  0  0  0  0  0  0  0  0
   16.7574   34.1789   32.4619 H   0  0  0  0  0  0  0  0  0  0  0  0
   15.3533   35.7353   37.5139 H   0  0  0  0  0  0  0  0  0  0  0  0
   16.6366   34.5314   37.1415 H   0  0  0  0  0  0  0  0  0  0  0  0
  1  2  2  0
  1  3  1  0
  3  4  1  0
  4  5  1  0
  6  1  1  0
  7  6  1  0
  6  8  1  0
  8  9  1  0
  9 10  1  0
  9 11  2  0
 10 12  1  0
 12 13  1  0
 13 14  2  0
 15 13  1  0
 14 16  1  0
 14 17  1  0
 18 15  2  0
 16 19  1  0
 16 20  2  0
 17 21  2  0
 21 18  1  0
  4 22  2  0
  4 23  1  0
 24 23  1  0
 24 25  1  0
 25 26  1  0
 25 27  1  0
 26 28  1  0
 27 29  1  0
 27 30  1  0
 30 28  1  0
 28 31  1  0
 30 32  1  0
 33 31  1  0
 34 31  1  0
 35 33  2  0
 33 36  1  0
 37 34  2  0
 38 35  1  0
 36 39  2  0
 36 37  1  0
 40 38  2  0
 40 39  1  0
 39 41  1  0
  6 42  1  6
  7 43  1  0
  7 44  1  0
  8 45  1  0
  8 46  1  0
 12 47  1  0
 12 48  1  0
 15 49  1  0
 17 50  1  0
 18 51  1  0
 21 52  1  0
 24 53  1  0
 24 54  1  0
 25 55  1  0
 27 56  1  0
 28 57  1  0
 29 58  1  0
 30 59  1  0
 32 60  1  0
 34 61  1  0
 38 62  1  0
 41 63  1  0
 41 64  1  0
M  CHG  3   5  -1  16   1  19  -1
M  END
>  <EmbedRMS>  (253) 
0.08775104950809515

$$$$

     RDKit          3D

 64 67  0  0  0  0  0  0  0  0999 V2000
   10.2835   43.7724   33.8129 C   0  0  0  0  0  0  0  0  0  0  0  0
   11.4076   43.5835   34.3642 O   0  0  0  0  0  0  0  0  0  0  0  0
    9.3705   42.7279   33.6976 O   0  0  0  0  0  0  0  0  0  0  0  0
    9.8855   41.2319   34.2841 P   0  0  0  0  0  5  0  0  0  0  0  0
   10.3645   41.4684   35.8749 O   0  0  0  0  0  1  0  0  0  0  0  0
    9.9545   45.1203   33.2565 C   0  0  2  0  0  0  0  0  0  0  0  0
   11.0710   46.0443   33.4660 N   0  0  0  0  0  0  0  0  0  0  0  0
    8.6845   45.7105   33.8996 C   0  0  0  0  0  0  0  0  0  0  0  0
    7.4514   44.9552   33.5081 C   0  0  0  0  0  0  0  0  0  0  0  0
    6.9023   44.0311   34.4007 O   0  0  0  0  0  0  0  0  0  0  0  0
    6.9454   45.1269   32.3655 O   0  0  0  0  0  0  0  0  0  0  0  0
    5.8265   43.1648   34.0503 C   0  0  0  0  0  0  0  0  0  0  0  0
    5.5079   42.2033   35.1742 C   0  0  0  0  0  0  0  0  0  0  0  0
    4.2375   41.5720   35.2679 C   0  0  0  0  0  0  0  0  0  0  0  0
    6.4945   41.8955   36.1335 C   0  0  0  0  0  0  0  0  0  0  0  0
    3.2120   41.7741   34.2788 N   0  0  0  0  0  4  0  0  0  0  0  0
    3.9721   40.7197   36.3543 C   0  0  0  0  0  0  0  0  0  0  0  0
    6.2160   41.0300   37.1916 C   0  0  0  0  0  0  0  0  0  0  0  0
    1.8862   41.7015   34.6398 O   0  0  0  0  0  1  0  0  0  0  0  0
    3.5012   41.8277   33.0657 O   0  0  0  0  0  0  0  0  0  0  0  0
    4.9544   40.4517   37.3078 C   0  0  0  0  0  0  0  0  0  0  0  0
    8.8068   40.1903   34.2077 O   0  0  0  0  0  0  0  0  0  0  0  0
   11.2372   40.7882   33.3692 O   0  0  0  0  0  0  0  0  0  0  0  0
   10.9159   40.6893   31.9961 C   0  0  0  0  0  0  0  0  0  0  0  0
   11.5270   39.3896   31.4371 C   0  0  0  0  0  0  0  0  0  0  0  0
   12.7509   39.0914   32.0834 O   0  0  0  0  0  0  0  0  0  0  0  0
   10.6121   38.1915   31.6451 C   0  0  0  0  0  0  0  0  0  0  0  0
   12.9429   37.6851   32.0294 C   0  0  0  0  0  0  0  0  0  0  0  0
    9.6068   38.0858   30.6603 O   0  0  0  0  0  0  0  0  0  0  0  0
   11.5844   37.0185   31.6879 C   0  0  0  0  0  0  0  0  0  0  0  0
   13.4898   37.2163   33.3249 N   0  0  0  0  0  0  0  0  0  0  0  0
   11.6200   36.3062   30.4693 O   0  0  0  0  0  0  0  0  0  0  0  0
   14.4758   36.3263   33.5738 C   0  0  0  0  0  0  0  0  0  0  0  0
   13.1175   37.6307   34.5698 C   0  0  0  0  0  0  0  0  0  0  0  0
   15.2065   35.6139   32.6746 N   0  0  0  0  0  0  0  0  0  0  0  0
   14.6731   36.2268   34.9191 C   0  0  0  0  0  0  0  0  0  0  0  0
   13.8224   37.0450   35.5792 N   0  0  0  0  0  0  0  0  0  0  0  0
   16.1640   34.7596   33.1551 C   0  0  0  0  0  0  0  0  0  0  0  0
   15.6517   35.3489   35.4136 C   0  0  0  0  0  0  0  0  0  0  0  0
   16.3795   34.6310   34.5046 N   0  0  0  0  0  0  0  0  0  0  0  0
   15.9006   35.1931   36.8094 N   0  0  0  0  0  0  0  0  0  0  0  0
    9.7895   45.0160   32.1611 H   0  0  0  0  0  0  0  0  0  0  0  0
   11.9172   45.6891   32.9628 H   0  0  0  0  0  0  0  0  0  0  0  0
   11.2959   46.1155   34.4861 H   0  0  0  0  0  0  0  0  0  0  0  0
    8.5652   46.7672   33.5746 H   0  0  0  0  0  0  0  0  0  0  0  0
    8.7837   45.7112   35.0074 H   0  0  0  0  0  0  0  0  0  0  0  0
    4.9373   43.7913   33.8234 H   0  0  0  0  0  0  0  0  0  0  0  0
    6.1052   42.5776   33.1486 H   0  0  0  0  0  0  0  0  0  0  0  0
    7.4836   42.3303   36.0748 H   0  0  0  0  0  0  0  0  0  0  0  0
    3.0072   40.2381   36.4493 H   0  0  0  0  0  0  0  0  0  0  0  0
    6.9807   40.8100   37.9254 H   0  0  0  0  0  0  0  0  0  0  0  0
    4.7403   39.7833   38.1318 H   0  0  0  0  0  0  0  0  0  0  0  0
    9.8258   40.7191   31.7585 H   0  0  0  0  0  0  0  0  0  0  0  0
   11.3834   41.5524   31.4757 H   0  0  0  0  0  0  0  0  0  0  0  0
   11.7317   39.5338   30.3517 H   0  0  0  0  0  0  0  0  0  0  0  0
   10.1215   38.2683   32.6413 H   0  0  0  0  0  0  0  0  0  0  0  0
   13.6881   37.4703   31.2318 H   0  0  0  0  0  0  0  0  0  0  0  0
   10.0254   38.1750   29.7656 H   0  0  0  0  0  0  0  0  0  0  0  0
   11.2794   36.3123   32.4915 H   0  0  0  0  0  0  0  0  0  0  0  0
   11.9869   36.9098   29.7714 H   0  0  0  0  0  0  0  0  0  0  0  0
   12.3364   38.3595   34.7452 H   0  0  0  0  0  0  0  0  0  0  0  0
   16.7576   34.1794   32.4622 H   0  0  0  0  0  0  0  0  0  0  0  0
   15.3532   35.7351   37.5143 H   0  0  0  0  0  0  0  0  0  0  0  0
   16.6368   34.5316   37.1418 H   0  0  0  0  0  0  0  0  0  0  0  0
  1  2  2  0
  1  3  1  0
  3  4  1  0
  4  5  1  0
  6  1  1  0
  7  6  1  0
  6  8  1  0
  8  9  1  0
  9 10  1  0
  9 11  2  0
 10 12  1  0
 12 13  1  0
 13 14  2  0
 15 13  1  0
 14 16  1  0
 14 17  1  0
 18 15  2  0
 16 19  1  0
 16 20  2  0
 17 21  2  0
 21 18  1  0
  4 22  2  0
  4 23  1  0
 24 23  1  0
 24 25  1  0
 25 26  1  0
 25 27  1  0
 26 28  1  0
 27 29  1  0
 27 30  1  0
 30 28  1  0
 28 31  1  0
 30 32  1  0
 33 31  1  0
 34 31  1  0
 35 33  2  0
 33 36  1  0
 37 34  2  0
 38 35  1  0
 36 39  2  0
 36 37  1  0
 40 38  2  0
 40 39  1  0
 39 41  1  0
  6 42  1  6
  7 43  1  0
  7 44  1  0
  8 45  1  0
  8 46  1  0
 12 47  1  0
 12 48  1  0
 15 49  1  0
 17 50  1  0
 18 51  1  0
 21 52  1  0
 24 53  1  0
 24 54  1  0
 25 55  1  0
 27 56  1  0
 28 57  1  0
 29 58  1  0
 30 59  1  0
 32 60  1  0
 34 61  1  0
 38 62  1  0
 41 63  1  0
 41 64  1  0
M  CHG  3   5  -1  16   1  19  -1
M  END
>  <EmbedRMS>  (254) 
0.08805053502537054

$$$$

     RDKit          3D

 64 67  0  0  0  0  0  0  0  0999 V2000
   10.2823   43.7752   33.8089 C   0  0  0  0  0  0  0  0  0  0  0  0
   11.4053   43.5918   34.3648 O   0  0  0  0  0  0  0  0  0  0  0  0
    9.3714   42.7284   33.6946 O   0  0  0  0  0  0  0  0  0  0  0  0
    9.8867   41.2333   34.2832 P   0  0  0  0  0  5  0  0  0  0  0  0
   10.3657   41.4707   35.8739 O   0  0  0  0  0  1  0  0  0  0  0  0
    9.9446   45.1225   33.2624 C   0  0  2  0  0  0  0  0  0  0  0  0
   11.0792   46.0245   33.4670 N   0  0  0  0  0  0  0  0  0  0  0  0
    8.6956   45.7028   33.9594 C   0  0  0  0  0  0  0  0  0  0  0  0
    7.4527   44.9380   33.6201 C   0  0  0  0  0  0  0  0  0  0  0  0
    6.9096   44.0556   34.5613 O   0  0  0  0  0  0  0  0  0  0  0  0
    6.9255   45.0716   32.4819 O   0  0  0  0  0  0  0  0  0  0  0  0
    5.7745   43.2321   34.2959 C   0  0  0  0  0  0  0  0  0  0  0  0
    4.5002   44.0457   34.2069 C   0  0  0  0  0  0  0  0  0  0  0  0
    3.4246   43.6598   33.3628 C   0  0  0  0  0  0  0  0  0  0  0  0
    4.3643   45.2013   35.0009 C   0  0  0  0  0  0  0  0  0  0  0  0
    3.4510   42.4345   32.6112 N   0  0  0  0  0  4  0  0  0  0  0  0
    2.2933   44.4888   33.2689 C   0  0  0  0  0  0  0  0  0  0  0  0
    3.2237   45.9998   34.9081 C   0  0  0  0  0  0  0  0  0  0  0  0
    2.8173   42.3641   31.3919 O   0  0  0  0  0  1  0  0  0  0  0  0
    3.8561   41.3786   33.1398 O   0  0  0  0  0  0  0  0  0  0  0  0
    2.1959   45.6512   34.0345 C   0  0  0  0  0  0  0  0  0  0  0  0
    8.8078   40.1918   34.2080 O   0  0  0  0  0  0  0  0  0  0  0  0
   11.2379   40.7880   33.3681 O   0  0  0  0  0  0  0  0  0  0  0  0
   10.9162   40.6878   31.9949 C   0  0  0  0  0  0  0  0  0  0  0  0
   11.5263   39.3869   31.4361 C   0  0  0  0  0  0  0  0  0  0  0  0
   12.7494   39.0890   32.0814 O   0  0  0  0  0  0  0  0  0  0  0  0
   10.6124   38.1893   31.6460 C   0  0  0  0  0  0  0  0  0  0  0  0
   12.9374   37.6824   32.0300 C   0  0  0  0  0  0  0  0  0  0  0  0
    9.6150   38.0839   30.6538 O   0  0  0  0  0  0  0  0  0  0  0  0
   11.5793   37.0135   31.7013 C   0  0  0  0  0  0  0  0  0  0  0  0
   13.4906   37.2169   33.3242 N   0  0  0  0  0  0  0  0  0  0  0  0
   11.6215   36.3251   30.4725 O   0  0  0  0  0  0  0  0  0  0  0  0
   14.4763   36.3266   33.5731 C   0  0  0  0  0  0  0  0  0  0  0  0
   13.1181   37.6308   34.5693 C   0  0  0  0  0  0  0  0  0  0  0  0
   15.2066   35.6137   32.6740 N   0  0  0  0  0  0  0  0  0  0  0  0
   14.6735   36.2270   34.9185 C   0  0  0  0  0  0  0  0  0  0  0  0
   13.8229   37.0451   35.5787 N   0  0  0  0  0  0  0  0  0  0  0  0
   16.1639   34.7593   33.1547 C   0  0  0  0  0  0  0  0  0  0  0  0
   15.6519   35.3489   35.4132 C   0  0  0  0  0  0  0  0  0  0  0  0
   16.3794   34.6308   34.5042 N   0  0  0  0  0  0  0  0  0  0  0  0
   15.9006   35.1931   36.8090 N   0  0  0  0  0  0  0  0  0  0  0  0
    9.7480   45.0259   32.1702 H   0  0  0  0  0  0  0  0  0  0  0  0
   10.8348   46.9620   33.0721 H   0  0  0  0  0  0  0  0  0  0  0  0
   11.8814   45.6833   32.8874 H   0  0  0  0  0  0  0  0  0  0  0  0
    8.8427   45.7058   35.0619 H   0  0  0  0  0  0  0  0  0  0  0  0
    8.5457   46.7576   33.6419 H   0  0  0  0  0  0  0  0  0  0  0  0
    5.6684   42.4973   35.1209 H   0  0  0  0  0  0  0  0  0  0  0  0
    5.9652   42.6726   33.3556 H   0  0  0  0  0  0  0  0  0  0  0  0
    5.1495   45.4965   35.6856 H   0  0  0  0  0  0  0  0  0  0  0  0
    1.4691   44.2184   32.6209 H   0  0  0  0  0  0  0  0  0  0  0  0
    3.1386   46.8934   35.5130 H   0  0  0  0  0  0  0  0  0  0  0  0
    1.3137   46.2742   33.9620 H   0  0  0  0  0  0  0  0  0  0  0  0
    9.8260   40.7181   31.7578 H   0  0  0  0  0  0  0  0  0  0  0  0
   11.3840   41.5501   31.4735 H   0  0  0  0  0  0  0  0  0  0  0  0
   11.7292   39.5286   30.3500 H   0  0  0  0  0  0  0  0  0  0  0  0
   10.1141   38.2720   32.6379 H   0  0  0  0  0  0  0  0  0  0  0  0
   13.6726   37.4630   31.2239 H   0  0  0  0  0  0  0  0  0  0  0  0
   10.0534   38.1084   29.7638 H   0  0  0  0  0  0  0  0  0  0  0  0
   11.2645   36.3134   32.5107 H   0  0  0  0  0  0  0  0  0  0  0  0
   12.1546   35.5030   30.6315 H   0  0  0  0  0  0  0  0  0  0  0  0
   12.3362   38.3586   34.7449 H   0  0  0  0  0  0  0  0  0  0  0  0
   16.7574   34.1788   32.4619 H   0  0  0  0  0  0  0  0  0  0  0  0
   16.6366   34.5314   37.1415 H   0  0  0  0  0  0  0  0  0  0  0  0
   15.3533   35.7353   37.5139 H   0  0  0  0  0  0  0  0  0  0  0  0
  1  2  2  0
  1  3  1  0
  3  4  1  0
  4  5  1  0
  6  1  1  0
  7  6  1  0
  6  8  1  0
  8  9  1  0
  9 10  1  0
  9 11  2  0
 10 12  1  0
 12 13  1  0
 13 14  2  0
 15 13  1  0
 14 16  1  0
 14 17  1  0
 18 15  2  0
 16 19  1  0
 16 20  2  0
 17 21  2  0
 21 18  1  0
  4 22  2  0
  4 23  1  0
 24 23  1  0
 24 25  1  0
 25 26  1  0
 25 27  1  0
 26 28  1  0
 27 29  1  0
 27 30  1  0
 30 28  1  0
 28 31  1  0
 30 32  1  0
 33 31  1  0
 34 31  1  0
 35 33  2  0
 33 36  1  0
 37 34  2  0
 38 35  1  0
 36 39  2  0
 36 37  1  0
 40 38  2  0
 40 39  1  0
 39 41  1  0
  6 42  1  6
  7 43  1  0
  7 44  1  0
  8 45  1  0
  8 46  1  0
 12 47  1  0
 12 48  1  0
 15 49  1  0
 17 50  1  0
 18 51  1  0
 21 52  1  0
 24 53  1  0
 24 54  1  0
 25 55  1  0
 27 56  1  0
 28 57  1  0
 29 58  1  0
 30 59  1  0
 32 60  1  0
 34 61  1  0
 38 62  1  0
 41 63  1  0
 41 64  1  0
M  CHG  3   5  -1  16   1  19  -1
M  END
>  <EmbedRMS>  (255) 
0.08846676458739883

$$$$

     RDKit          3D

 64 67  0  0  0  0  0  0  0  0999 V2000
   10.2785   43.7769   33.8121 C   0  0  0  0  0  0  0  0  0  0  0  0
   11.4050   43.5917   34.3604 O   0  0  0  0  0  0  0  0  0  0  0  0
    9.3658   42.7308   33.7020 O   0  0  0  0  0  0  0  0  0  0  0  0
    9.8866   41.2341   34.2842 P   0  0  0  0  0  5  0  0  0  0  0  0
   10.3660   41.4690   35.8750 O   0  0  0  0  0  1  0  0  0  0  0  0
    9.9514   45.1174   33.2476 C   0  0  2  0  0  0  0  0  0  0  0  0
   11.0790   46.0230   33.4761 N   0  0  0  0  0  0  0  0  0  0  0  0
    8.6607   45.7035   33.8653 C   0  0  0  0  0  0  0  0  0  0  0  0
    7.4246   44.9453   33.4804 C   0  0  0  0  0  0  0  0  0  0  0  0
    6.4884   44.6226   34.4665 O   0  0  0  0  0  0  0  0  0  0  0  0
    7.2107   44.6526   32.2717 O   0  0  0  0  0  0  0  0  0  0  0  0
    5.2892   43.9063   34.1876 C   0  0  0  0  0  0  0  0  0  0  0  0
    4.4559   43.7966   35.4413 C   0  0  0  0  0  0  0  0  0  0  0  0
    4.9783   43.2685   36.6528 C   0  0  0  0  0  0  0  0  0  0  0  0
    3.1302   44.2689   35.4148 C   0  0  0  0  0  0  0  0  0  0  0  0
    6.3162   42.7465   36.7377 N   0  0  0  0  0  4  0  0  0  0  0  0
    4.1690   43.2638   37.8038 C   0  0  0  0  0  0  0  0  0  0  0  0
    2.3396   44.2397   36.5643 C   0  0  0  0  0  0  0  0  0  0  0  0
    6.8304   41.9737   35.7237 O   0  0  0  0  0  1  0  0  0  0  0  0
    6.9610   42.8455   37.8022 O   0  0  0  0  0  0  0  0  0  0  0  0
    2.8595   43.7431   37.7576 C   0  0  0  0  0  0  0  0  0  0  0  0
    8.8107   40.1895   34.2070 O   0  0  0  0  0  0  0  0  0  0  0  0
   11.2384   40.7925   33.3680 O   0  0  0  0  0  0  0  0  0  0  0  0
   10.9156   40.6901   31.9954 C   0  0  0  0  0  0  0  0  0  0  0  0
   11.5270   39.3898   31.4373 C   0  0  0  0  0  0  0  0  0  0  0  0
   12.7507   39.0917   32.0839 O   0  0  0  0  0  0  0  0  0  0  0  0
   10.6121   38.1917   31.6453 C   0  0  0  0  0  0  0  0  0  0  0  0
   12.9429   37.6853   32.0295 C   0  0  0  0  0  0  0  0  0  0  0  0
    9.6069   38.0859   30.6604 O   0  0  0  0  0  0  0  0  0  0  0  0
   11.5844   37.0186   31.6880 C   0  0  0  0  0  0  0  0  0  0  0  0
   13.4898   37.2163   33.3250 N   0  0  0  0  0  0  0  0  0  0  0  0
   11.6201   36.3063   30.4693 O   0  0  0  0  0  0  0  0  0  0  0  0
   14.4759   36.3263   33.5738 C   0  0  0  0  0  0  0  0  0  0  0  0
   13.1175   37.6308   34.5699 C   0  0  0  0  0  0  0  0  0  0  0  0
   15.2065   35.6139   32.6746 N   0  0  0  0  0  0  0  0  0  0  0  0
   14.6731   36.2267   34.9191 C   0  0  0  0  0  0  0  0  0  0  0  0
   13.8224   37.0450   35.5792 N   0  0  0  0  0  0  0  0  0  0  0  0
   16.1640   34.7596   33.1551 C   0  0  0  0  0  0  0  0  0  0  0  0
   15.6517   35.3489   35.4136 C   0  0  0  0  0  0  0  0  0  0  0  0
   16.3795   34.6310   34.5046 N   0  0  0  0  0  0  0  0  0  0  0  0
   15.9006   35.1931   36.8094 N   0  0  0  0  0  0  0  0  0  0  0  0
    9.8168   45.0012   32.1493 H   0  0  0  0  0  0  0  0  0  0  0  0
   10.9126   46.9061   32.9404 H   0  0  0  0  0  0  0  0  0  0  0  0
   11.1251   46.2798   34.4902 H   0  0  0  0  0  0  0  0  0  0  0  0
    8.5323   46.7529   33.5233 H   0  0  0  0  0  0  0  0  0  0  0  0
    8.7510   45.7212   34.9738 H   0  0  0  0  0  0  0  0  0  0  0  0
    4.7297   44.4401   33.3880 H   0  0  0  0  0  0  0  0  0  0  0  0
    5.5276   42.8924   33.8031 H   0  0  0  0  0  0  0  0  0  0  0  0
    2.7063   44.6724   34.5035 H   0  0  0  0  0  0  0  0  0  0  0  0
    4.5489   42.8701   38.7382 H   0  0  0  0  0  0  0  0  0  0  0  0
    1.3228   44.6094   36.5308 H   0  0  0  0  0  0  0  0  0  0  0  0
    2.2453   43.7254   38.6487 H   0  0  0  0  0  0  0  0  0  0  0  0
   11.3818   41.5526   31.4728 H   0  0  0  0  0  0  0  0  0  0  0  0
    9.8253   40.7192   31.7590 H   0  0  0  0  0  0  0  0  0  0  0  0
   11.7319   39.5335   30.3519 H   0  0  0  0  0  0  0  0  0  0  0  0
   10.1215   38.2684   32.6414 H   0  0  0  0  0  0  0  0  0  0  0  0
   13.6882   37.4709   31.2319 H   0  0  0  0  0  0  0  0  0  0  0  0
   10.0255   38.1752   29.7657 H   0  0  0  0  0  0  0  0  0  0  0  0
   11.2795   36.3124   32.4916 H   0  0  0  0  0  0  0  0  0  0  0  0
   11.9871   36.9100   29.7715 H   0  0  0  0  0  0  0  0  0  0  0  0
   12.3365   38.3596   34.7453 H   0  0  0  0  0  0  0  0  0  0  0  0
   16.7576   34.1794   32.4622 H   0  0  0  0  0  0  0  0  0  0  0  0
   15.3532   35.7351   37.5143 H   0  0  0  0  0  0  0  0  0  0  0  0
   16.6368   34.5316   37.1418 H   0  0  0  0  0  0  0  0  0  0  0  0
  1  2  2  0
  1  3  1  0
  3  4  1  0
  4  5  1  0
  6  1  1  0
  7  6  1  0
  6  8  1  0
  8  9  1  0
  9 10  1  0
  9 11  2  0
 10 12  1  0
 12 13  1  0
 13 14  2  0
 15 13  1  0
 14 16  1  0
 14 17  1  0
 18 15  2  0
 16 19  1  0
 16 20  2  0
 17 21  2  0
 21 18  1  0
  4 22  2  0
  4 23  1  0
 24 23  1  0
 24 25  1  0
 25 26  1  0
 25 27  1  0
 26 28  1  0
 27 29  1  0
 27 30  1  0
 30 28  1  0
 28 31  1  0
 30 32  1  0
 33 31  1  0
 34 31  1  0
 35 33  2  0
 33 36  1  0
 37 34  2  0
 38 35  1  0
 36 39  2  0
 36 37  1  0
 40 38  2  0
 40 39  1  0
 39 41  1  0
  6 42  1  6
  7 43  1  0
  7 44  1  0
  8 45  1  0
  8 46  1  0
 12 47  1  0
 12 48  1  0
 15 49  1  0
 17 50  1  0
 18 51  1  0
 21 52  1  0
 24 53  1  0
 24 54  1  0
 25 55  1  0
 27 56  1  0
 28 57  1  0
 29 58  1  0
 30 59  1  0
 32 60  1  0
 34 61  1  0
 38 62  1  0
 41 63  1  0
 41 64  1  0
M  CHG  3   5  -1  16   1  19  -1
M  END
>  <EmbedRMS>  (256) 
0.08685287674109202

$$$$

     RDKit          3D

 64 67  0  0  0  0  0  0  0  0999 V2000
   10.2844   43.7734   33.8088 C   0  0  0  0  0  0  0  0  0  0  0  0
   11.4120   43.5871   34.3532 O   0  0  0  0  0  0  0  0  0  0  0  0
    9.3658   42.7321   33.7047 O   0  0  0  0  0  0  0  0  0  0  0  0
    9.8851   41.2342   34.2854 P   0  0  0  0  0  5  0  0  0  0  0  0
   10.3652   41.4664   35.8760 O   0  0  0  0  0  1  0  0  0  0  0  0
    9.9617   45.1083   33.2366 C   0  0  2  0  0  0  0  0  0  0  0  0
   11.0649   46.0388   33.4886 N   0  0  0  0  0  0  0  0  0  0  0  0
    8.6115   45.6543   33.7539 C   0  0  0  0  0  0  0  0  0  0  0  0
    8.6053   45.9072   35.2326 C   0  0  0  0  0  0  0  0  0  0  0  0
    8.5345   44.8263   36.1186 O   0  0  0  0  0  0  0  0  0  0  0  0
    8.6867   47.0895   35.6631 O   0  0  0  0  0  0  0  0  0  0  0  0
    8.5509   44.9686   37.5385 C   0  0  0  0  0  0  0  0  0  0  0  0
    9.8928   45.4798   38.0142 C   0  0  0  0  0  0  0  0  0  0  0  0
   10.0325   46.6078   38.8664 C   0  0  0  0  0  0  0  0  0  0  0  0
   11.0389   44.7473   37.6578 C   0  0  0  0  0  0  0  0  0  0  0  0
    8.9073   47.4016   39.2711 N   0  0  0  0  0  4  0  0  0  0  0  0
   11.3084   46.9579   39.3397 C   0  0  0  0  0  0  0  0  0  0  0  0
   12.3002   45.1229   38.1210 C   0  0  0  0  0  0  0  0  0  0  0  0
    8.8278   47.8548   40.5676 O   0  0  0  0  0  1  0  0  0  0  0  0
    8.1532   47.9026   38.4124 O   0  0  0  0  0  0  0  0  0  0  0  0
   12.4345   46.2247   38.9633 C   0  0  0  0  0  0  0  0  0  0  0  0
    8.8079   40.1912   34.2078 O   0  0  0  0  0  0  0  0  0  0  0  0
   11.2379   40.7918   33.3698 O   0  0  0  0  0  0  0  0  0  0  0  0
   10.9182   40.6908   31.9964 C   0  0  0  0  0  0  0  0  0  0  0  0
   11.5172   39.3826   31.4415 C   0  0  0  0  0  0  0  0  0  0  0  0
   12.7492   39.0895   32.0759 O   0  0  0  0  0  0  0  0  0  0  0  0
   10.6035   38.1900   31.6660 C   0  0  0  0  0  0  0  0  0  0  0  0
   12.9400   37.6836   32.0277 C   0  0  0  0  0  0  0  0  0  0  0  0
    9.6376   38.0786   30.6474 O   0  0  0  0  0  0  0  0  0  0  0  0
   11.5803   37.0205   31.6937 C   0  0  0  0  0  0  0  0  0  0  0  0
   13.4902   37.2178   33.3238 N   0  0  0  0  0  0  0  0  0  0  0  0
   11.6118   36.3194   30.4681 O   0  0  0  0  0  0  0  0  0  0  0  0
   14.4758   36.3272   33.5731 C   0  0  0  0  0  0  0  0  0  0  0  0
   13.1176   37.6318   34.5688 C   0  0  0  0  0  0  0  0  0  0  0  0
   15.2064   35.6142   32.6742 N   0  0  0  0  0  0  0  0  0  0  0  0
   14.6729   36.2274   34.9184 C   0  0  0  0  0  0  0  0  0  0  0  0
   13.8222   37.0458   35.5784 N   0  0  0  0  0  0  0  0  0  0  0  0
   16.1636   34.7597   33.1549 C   0  0  0  0  0  0  0  0  0  0  0  0
   15.6514   35.3493   35.4133 C   0  0  0  0  0  0  0  0  0  0  0  0
   16.3791   34.6312   34.5043 N   0  0  0  0  0  0  0  0  0  0  0  0
   15.9001   35.1935   36.8091 N   0  0  0  0  0  0  0  0  0  0  0  0
    9.8705   44.9735   32.1365 H   0  0  0  0  0  0  0  0  0  0  0  0
   10.8496   46.9481   33.0187 H   0  0  0  0  0  0  0  0  0  0  0  0
   11.1488   46.2298   34.5139 H   0  0  0  0  0  0  0  0  0  0  0  0
    7.8002   44.9343   33.5118 H   0  0  0  0  0  0  0  0  0  0  0  0
    8.3726   46.5983   33.2168 H   0  0  0  0  0  0  0  0  0  0  0  0
    8.3821   43.9683   37.9899 H   0  0  0  0  0  0  0  0  0  0  0  0
    7.6994   45.6003   37.8561 H   0  0  0  0  0  0  0  0  0  0  0  0
   10.9525   43.8725   37.0274 H   0  0  0  0  0  0  0  0  0  0  0  0
   11.4320   47.8142   39.9908 H   0  0  0  0  0  0  0  0  0  0  0  0
   13.1735   44.5509   37.8351 H   0  0  0  0  0  0  0  0  0  0  0  0
   13.4128   46.5107   39.3272 H   0  0  0  0  0  0  0  0  0  0  0  0
    9.8302   40.7396   31.7568 H   0  0  0  0  0  0  0  0  0  0  0  0
   11.3986   41.5457   31.4743 H   0  0  0  0  0  0  0  0  0  0  0  0
   11.6987   39.5094   30.3493 H   0  0  0  0  0  0  0  0  0  0  0  0
   10.1128   38.2588   32.6665 H   0  0  0  0  0  0  0  0  0  0  0  0
   13.6800   37.4631   31.2266 H   0  0  0  0  0  0  0  0  0  0  0  0
    8.8952   38.6908   30.8891 H   0  0  0  0  0  0  0  0  0  0  0  0
   11.2831   36.3061   32.4929 H   0  0  0  0  0  0  0  0  0  0  0  0
   11.8859   36.9591   29.7593 H   0  0  0  0  0  0  0  0  0  0  0  0
   12.3361   38.3602   34.7442 H   0  0  0  0  0  0  0  0  0  0  0  0
   16.7572   34.1793   32.4621 H   0  0  0  0  0  0  0  0  0  0  0  0
   16.6362   34.5318   37.1415 H   0  0  0  0  0  0  0  0  0  0  0  0
   15.3528   35.7357   37.5140 H   0  0  0  0  0  0  0  0  0  0  0  0
  1  2  2  0
  1  3  1  0
  3  4  1  0
  4  5  1  0
  6  1  1  0
  7  6  1  0
  6  8  1  0
  8  9  1  0
  9 10  1  0
  9 11  2  0
 10 12  1  0
 12 13  1  0
 13 14  2  0
 15 13  1  0
 14 16  1  0
 14 17  1  0
 18 15  2  0
 16 19  1  0
 16 20  2  0
 17 21  2  0
 21 18  1  0
  4 22  2  0
  4 23  1  0
 24 23  1  0
 24 25  1  0
 25 26  1  0
 25 27  1  0
 26 28  1  0
 27 29  1  0
 27 30  1  0
 30 28  1  0
 28 31  1  0
 30 32  1  0
 33 31  1  0
 34 31  1  0
 35 33  2  0
 33 36  1  0
 37 34  2  0
 38 35  1  0
 36 39  2  0
 36 37  1  0
 40 38  2  0
 40 39  1  0
 39 41  1  0
  6 42  1  6
  7 43  1  0
  7 44  1  0
  8 45  1  0
  8 46  1  0
 12 47  1  0
 12 48  1  0
 15 49  1  0
 17 50  1  0
 18 51  1  0
 21 52  1  0
 24 53  1  0
 24 54  1  0
 25 55  1  0
 27 56  1  0
 28 57  1  0
 29 58  1  0
 30 59  1  0
 32 60  1  0
 34 61  1  0
 38 62  1  0
 41 63  1  0
 41 64  1  0
M  CHG  3   5  -1  16   1  19  -1
M  END
>  <EmbedRMS>  (257) 
0.08838062240986007

$$$$

     RDKit          3D

 64 67  0  0  0  0  0  0  0  0999 V2000
   10.2867   43.7710   33.8022 C   0  0  0  0  0  0  0  0  0  0  0  0
   11.4100   43.5865   34.3569 O   0  0  0  0  0  0  0  0  0  0  0  0
    9.3668   42.7309   33.7000 O   0  0  0  0  0  0  0  0  0  0  0  0
    9.8847   41.2345   34.2854 P   0  0  0  0  0  5  0  0  0  0  0  0
   10.3663   41.4703   35.8754 O   0  0  0  0  0  1  0  0  0  0  0  0
    9.9572   45.1131   33.2465 C   0  0  2  0  0  0  0  0  0  0  0  0
   11.0670   46.0375   33.4853 N   0  0  0  0  0  0  0  0  0  0  0  0
    8.6447   45.6635   33.8466 C   0  0  0  0  0  0  0  0  0  0  0  0
    8.7296   45.9963   35.3115 C   0  0  0  0  0  0  0  0  0  0  0  0
    9.5834   45.2740   36.1540 O   0  0  0  0  0  0  0  0  0  0  0  0
    7.9730   46.8878   35.7842 O   0  0  0  0  0  0  0  0  0  0  0  0
    9.5726   45.3985   37.5751 C   0  0  0  0  0  0  0  0  0  0  0  0
    8.3430   44.7517   38.1769 C   0  0  0  0  0  0  0  0  0  0  0  0
    7.7587   45.2347   39.3769 C   0  0  0  0  0  0  0  0  0  0  0  0
    7.7775   43.6255   37.5464 C   0  0  0  0  0  0  0  0  0  0  0  0
    8.3530   46.3088   40.1257 N   0  0  0  0  0  4  0  0  0  0  0  0
    6.5805   44.6353   39.8578 C   0  0  0  0  0  0  0  0  0  0  0  0
    6.6192   43.0330   38.0503 C   0  0  0  0  0  0  0  0  0  0  0  0
    9.7124   46.3382   40.3360 O   0  0  0  0  0  1  0  0  0  0  0  0
    7.6296   47.1081   40.7554 O   0  0  0  0  0  0  0  0  0  0  0  0
    6.0150   43.5443   39.1968 C   0  0  0  0  0  0  0  0  0  0  0  0
    8.8072   40.1916   34.2100 O   0  0  0  0  0  0  0  0  0  0  0  0
   11.2363   40.7901   33.3695 O   0  0  0  0  0  0  0  0  0  0  0  0
   10.9150   40.6897   31.9965 C   0  0  0  0  0  0  0  0  0  0  0  0
   11.5268   39.3899   31.4376 C   0  0  0  0  0  0  0  0  0  0  0  0
   12.7506   39.0917   32.0840 O   0  0  0  0  0  0  0  0  0  0  0  0
   10.6121   38.1916   31.6452 C   0  0  0  0  0  0  0  0  0  0  0  0
   12.9429   37.6854   32.0295 C   0  0  0  0  0  0  0  0  0  0  0  0
    9.6069   38.0858   30.6603 O   0  0  0  0  0  0  0  0  0  0  0  0
   11.5845   37.0186   31.6880 C   0  0  0  0  0  0  0  0  0  0  0  0
   13.4898   37.2164   33.3250 N   0  0  0  0  0  0  0  0  0  0  0  0
   11.6202   36.3063   30.4693 O   0  0  0  0  0  0  0  0  0  0  0  0
   14.4758   36.3263   33.5738 C   0  0  0  0  0  0  0  0  0  0  0  0
   13.1175   37.6308   34.5699 C   0  0  0  0  0  0  0  0  0  0  0  0
   15.2065   35.6139   32.6746 N   0  0  0  0  0  0  0  0  0  0  0  0
   14.6731   36.2267   34.9191 C   0  0  0  0  0  0  0  0  0  0  0  0
   13.8224   37.0450   35.5792 N   0  0  0  0  0  0  0  0  0  0  0  0
   16.1640   34.7596   33.1551 C   0  0  0  0  0  0  0  0  0  0  0  0
   15.6517   35.3489   35.4136 C   0  0  0  0  0  0  0  0  0  0  0  0
   16.3795   34.6310   34.5046 N   0  0  0  0  0  0  0  0  0  0  0  0
   15.9006   35.1931   36.8094 N   0  0  0  0  0  0  0  0  0  0  0  0
    9.8110   44.9967   32.1489 H   0  0  0  0  0  0  0  0  0  0  0  0
   11.8878   45.7226   32.9172 H   0  0  0  0  0  0  0  0  0  0  0  0
   10.8044   46.9749   33.1024 H   0  0  0  0  0  0  0  0  0  0  0  0
    7.8252   44.9278   33.6974 H   0  0  0  0  0  0  0  0  0  0  0  0
    8.3591   46.5814   33.2875 H   0  0  0  0  0  0  0  0  0  0  0  0
   10.4724   44.8916   37.9815 H   0  0  0  0  0  0  0  0  0  0  0  0
    9.6327   46.4767   37.8349 H   0  0  0  0  0  0  0  0  0  0  0  0
    8.2235   43.2102   36.6515 H   0  0  0  0  0  0  0  0  0  0  0  0
    6.1136   44.9971   40.7652 H   0  0  0  0  0  0  0  0  0  0  0  0
    6.1873   42.1771   37.5477 H   0  0  0  0  0  0  0  0  0  0  0  0
    5.1147   43.0847   39.5839 H   0  0  0  0  0  0  0  0  0  0  0  0
   11.3819   41.5528   31.4753 H   0  0  0  0  0  0  0  0  0  0  0  0
    9.8249   40.7188   31.7594 H   0  0  0  0  0  0  0  0  0  0  0  0
   11.7315   39.5341   30.3522 H   0  0  0  0  0  0  0  0  0  0  0  0
   10.1213   38.2681   32.6413 H   0  0  0  0  0  0  0  0  0  0  0  0
   13.6882   37.4710   31.2319 H   0  0  0  0  0  0  0  0  0  0  0  0
   10.0257   38.1752   29.7656 H   0  0  0  0  0  0  0  0  0  0  0  0
   11.2796   36.3123   32.4915 H   0  0  0  0  0  0  0  0  0  0  0  0
   11.9872   36.9100   29.7715 H   0  0  0  0  0  0  0  0  0  0  0  0
   12.3365   38.3596   34.7454 H   0  0  0  0  0  0  0  0  0  0  0  0
   16.7576   34.1795   32.4622 H   0  0  0  0  0  0  0  0  0  0  0  0
   16.6368   34.5316   37.1418 H   0  0  0  0  0  0  0  0  0  0  0  0
   15.3532   35.7351   37.5143 H   0  0  0  0  0  0  0  0  0  0  0  0
  1  2  2  0
  1  3  1  0
  3  4  1  0
  4  5  1  0
  6  1  1  0
  7  6  1  0
  6  8  1  0
  8  9  1  0
  9 10  1  0
  9 11  2  0
 10 12  1  0
 12 13  1  0
 13 14  2  0
 15 13  1  0
 14 16  1  0
 14 17  1  0
 18 15  2  0
 16 19  1  0
 16 20  2  0
 17 21  2  0
 21 18  1  0
  4 22  2  0
  4 23  1  0
 24 23  1  0
 24 25  1  0
 25 26  1  0
 25 27  1  0
 26 28  1  0
 27 29  1  0
 27 30  1  0
 30 28  1  0
 28 31  1  0
 30 32  1  0
 33 31  1  0
 34 31  1  0
 35 33  2  0
 33 36  1  0
 37 34  2  0
 38 35  1  0
 36 39  2  0
 36 37  1  0
 40 38  2  0
 40 39  1  0
 39 41  1  0
  6 42  1  6
  7 43  1  0
  7 44  1  0
  8 45  1  0
  8 46  1  0
 12 47  1  0
 12 48  1  0
 15 49  1  0
 17 50  1  0
 18 51  1  0
 21 52  1  0
 24 53  1  0
 24 54  1  0
 25 55  1  0
 27 56  1  0
 28 57  1  0
 29 58  1  0
 30 59  1  0
 32 60  1  0
 34 61  1  0
 38 62  1  0
 41 63  1  0
 41 64  1  0
M  CHG  3   5  -1  16   1  19  -1
M  END
>  <EmbedRMS>  (258) 
0.08693832511187992

$$$$

     RDKit          3D

 64 67  0  0  0  0  0  0  0  0999 V2000
   10.2866   43.7708   33.8011 C   0  0  0  0  0  0  0  0  0  0  0  0
   11.4111   43.5844   34.3514 O   0  0  0  0  0  0  0  0  0  0  0  0
    9.3667   42.7307   33.6994 O   0  0  0  0  0  0  0  0  0  0  0  0
    9.8851   41.2343   34.2850 P   0  0  0  0  0  5  0  0  0  0  0  0
   10.3656   41.4706   35.8752 O   0  0  0  0  0  1  0  0  0  0  0  0
    9.9559   45.1141   33.2498 C   0  0  2  0  0  0  0  0  0  0  0  0
   11.0678   46.0366   33.4867 N   0  0  0  0  0  0  0  0  0  0  0  0
    8.6480   45.6643   33.8587 C   0  0  0  0  0  0  0  0  0  0  0  0
    8.7594   45.9914   35.3222 C   0  0  0  0  0  0  0  0  0  0  0  0
    9.3039   45.0561   36.2067 O   0  0  0  0  0  0  0  0  0  0  0  0
    8.3151   47.0918   35.7495 O   0  0  0  0  0  0  0  0  0  0  0  0
    9.2957   45.2286   37.6194 C   0  0  0  0  0  0  0  0  0  0  0  0
   10.0927   44.1223   38.2646 C   0  0  0  0  0  0  0  0  0  0  0  0
   11.4782   43.9231   38.0006 C   0  0  0  0  0  0  0  0  0  0  0  0
    9.4177   43.2185   39.1070 C   0  0  0  0  0  0  0  0  0  0  0  0
   12.2350   44.8014   37.1418 N   0  0  0  0  0  4  0  0  0  0  0  0
   12.1283   42.8160   38.5806 C   0  0  0  0  0  0  0  0  0  0  0  0
   10.0877   42.1366   39.6777 C   0  0  0  0  0  0  0  0  0  0  0  0
   11.9671   46.1487   37.0870 O   0  0  0  0  0  1  0  0  0  0  0  0
   13.2518   44.3762   36.5547 O   0  0  0  0  0  0  0  0  0  0  0  0
   11.4391   41.9342   39.4128 C   0  0  0  0  0  0  0  0  0  0  0  0
    8.8077   40.1914   34.2097 O   0  0  0  0  0  0  0  0  0  0  0  0
   11.2369   40.7895   33.3693 O   0  0  0  0  0  0  0  0  0  0  0  0
   10.9160   40.6890   31.9959 C   0  0  0  0  0  0  0  0  0  0  0  0
   11.5251   39.3874   31.4368 C   0  0  0  0  0  0  0  0  0  0  0  0
   12.7486   39.0880   32.0805 O   0  0  0  0  0  0  0  0  0  0  0  0
   10.6100   38.1910   31.6472 C   0  0  0  0  0  0  0  0  0  0  0  0
   12.9348   37.6809   32.0293 C   0  0  0  0  0  0  0  0  0  0  0  0
    9.6127   38.0875   30.6547 O   0  0  0  0  0  0  0  0  0  0  0  0
   11.5767   37.0134   31.7026 C   0  0  0  0  0  0  0  0  0  0  0  0
   13.4901   37.2166   33.3237 N   0  0  0  0  0  0  0  0  0  0  0  0
   11.6322   36.3232   30.4742 O   0  0  0  0  0  0  0  0  0  0  0  0
   14.4762   36.3266   33.5728 C   0  0  0  0  0  0  0  0  0  0  0  0
   13.1180   37.6309   34.5690 C   0  0  0  0  0  0  0  0  0  0  0  0
   15.2065   35.6136   32.6739 N   0  0  0  0  0  0  0  0  0  0  0  0
   14.6736   36.2273   34.9183 C   0  0  0  0  0  0  0  0  0  0  0  0
   13.8229   37.0454   35.5784 N   0  0  0  0  0  0  0  0  0  0  0  0
   16.1639   34.7593   33.1547 C   0  0  0  0  0  0  0  0  0  0  0  0
   15.6518   35.3491   35.4131 C   0  0  0  0  0  0  0  0  0  0  0  0
   16.3794   34.6309   34.5042 N   0  0  0  0  0  0  0  0  0  0  0  0
   15.9004   35.1933   36.8090 N   0  0  0  0  0  0  0  0  0  0  0  0
    9.8044   45.0010   32.1526 H   0  0  0  0  0  0  0  0  0  0  0  0
   11.8868   45.7214   32.9161 H   0  0  0  0  0  0  0  0  0  0  0  0
   10.8055   46.9750   33.1061 H   0  0  0  0  0  0  0  0  0  0  0  0
    8.3558   46.5809   33.3005 H   0  0  0  0  0  0  0  0  0  0  0  0
    7.8266   44.9288   33.7196 H   0  0  0  0  0  0  0  0  0  0  0  0
    9.7127   46.2165   37.9027 H   0  0  0  0  0  0  0  0  0  0  0  0
    8.2407   45.2202   37.9707 H   0  0  0  0  0  0  0  0  0  0  0  0
    8.3625   43.3425   39.3171 H   0  0  0  0  0  0  0  0  0  0  0  0
   13.1802   42.6387   38.3959 H   0  0  0  0  0  0  0  0  0  0  0  0
    9.5546   41.4491   40.3217 H   0  0  0  0  0  0  0  0  0  0  0  0
   11.9555   41.0912   39.8536 H   0  0  0  0  0  0  0  0  0  0  0  0
   11.3847   41.5509   31.4746 H   0  0  0  0  0  0  0  0  0  0  0  0
    9.8260   40.7206   31.7585 H   0  0  0  0  0  0  0  0  0  0  0  0
   11.7271   39.5292   30.3506 H   0  0  0  0  0  0  0  0  0  0  0  0
   10.1121   38.2731   32.6391 H   0  0  0  0  0  0  0  0  0  0  0  0
   13.6685   37.4592   31.2225 H   0  0  0  0  0  0  0  0  0  0  0  0
   10.0515   38.1113   29.7649 H   0  0  0  0  0  0  0  0  0  0  0  0
   11.2802   36.3129   32.5196 H   0  0  0  0  0  0  0  0  0  0  0  0
   10.8625   35.6962   30.4646 H   0  0  0  0  0  0  0  0  0  0  0  0
   12.3358   38.3584   34.7446 H   0  0  0  0  0  0  0  0  0  0  0  0
   16.7574   34.1788   32.4620 H   0  0  0  0  0  0  0  0  0  0  0  0
   16.6364   34.5316   37.1415 H   0  0  0  0  0  0  0  0  0  0  0  0
   15.3532   35.7356   37.5138 H   0  0  0  0  0  0  0  0  0  0  0  0
  1  2  2  0
  1  3  1  0
  3  4  1  0
  4  5  1  0
  6  1  1  0
  7  6  1  0
  6  8  1  0
  8  9  1  0
  9 10  1  0
  9 11  2  0
 10 12  1  0
 12 13  1  0
 13 14  2  0
 15 13  1  0
 14 16  1  0
 14 17  1  0
 18 15  2  0
 16 19  1  0
 16 20  2  0
 17 21  2  0
 21 18  1  0
  4 22  2  0
  4 23  1  0
 24 23  1  0
 24 25  1  0
 25 26  1  0
 25 27  1  0
 26 28  1  0
 27 29  1  0
 27 30  1  0
 30 28  1  0
 28 31  1  0
 30 32  1  0
 33 31  1  0
 34 31  1  0
 35 33  2  0
 33 36  1  0
 37 34  2  0
 38 35  1  0
 36 39  2  0
 36 37  1  0
 40 38  2  0
 40 39  1  0
 39 41  1  0
  6 42  1  6
  7 43  1  0
  7 44  1  0
  8 45  1  0
  8 46  1  0
 12 47  1  0
 12 48  1  0
 15 49  1  0
 17 50  1  0
 18 51  1  0
 21 52  1  0
 24 53  1  0
 24 54  1  0
 25 55  1  0
 27 56  1  0
 28 57  1  0
 29 58  1  0
 30 59  1  0
 32 60  1  0
 34 61  1  0
 38 62  1  0
 41 63  1  0
 41 64  1  0
M  CHG  3   5  -1  16   1  19  -1
M  END
>  <EmbedRMS>  (259) 
0.0880482600882421

$$$$

     RDKit          3D

 64 67  0  0  0  0  0  0  0  0999 V2000
   10.2880   43.7704   33.7985 C   0  0  0  0  0  0  0  0  0  0  0  0
   11.4092   43.5873   34.3578 O   0  0  0  0  0  0  0  0  0  0  0  0
    9.3674   42.7305   33.6979 O   0  0  0  0  0  0  0  0  0  0  0  0
    9.8850   41.2344   34.2849 P   0  0  0  0  0  5  0  0  0  0  0  0
   10.3689   41.4706   35.8741 O   0  0  0  0  0  1  0  0  0  0  0  0
    9.9558   45.1145   33.2464 C   0  0  2  0  0  0  0  0  0  0  0  0
   11.0667   46.0366   33.4888 N   0  0  0  0  0  0  0  0  0  0  0  0
    8.6500   45.6615   33.8602 C   0  0  0  0  0  0  0  0  0  0  0  0
    8.7180   45.7519   35.3557 C   0  0  0  0  0  0  0  0  0  0  0  0
    8.4865   44.6021   36.1143 O   0  0  0  0  0  0  0  0  0  0  0  0
    9.0241   46.8422   35.9107 O   0  0  0  0  0  0  0  0  0  0  0  0
    8.6047   44.5657   37.5330 C   0  0  0  0  0  0  0  0  0  0  0  0
    8.3840   43.1610   38.0484 C   0  0  0  0  0  0  0  0  0  0  0  0
    8.9983   42.7018   39.2447 C   0  0  0  0  0  0  0  0  0  0  0  0
    7.5424   42.2844   37.3337 C   0  0  0  0  0  0  0  0  0  0  0  0
    9.7842   43.5719   40.0778 N   0  0  0  0  0  4  0  0  0  0  0  0
    8.8281   41.3615   39.6337 C   0  0  0  0  0  0  0  0  0  0  0  0
    7.3731   40.9628   37.7473 C   0  0  0  0  0  0  0  0  0  0  0  0
   10.8280   43.0599   40.8138 O   0  0  0  0  0  1  0  0  0  0  0  0
    9.4137   44.7439   40.2958 O   0  0  0  0  0  0  0  0  0  0  0  0
    8.0244   40.4988   38.8878 C   0  0  0  0  0  0  0  0  0  0  0  0
    8.8069   40.1920   34.2115 O   0  0  0  0  0  0  0  0  0  0  0  0
   11.2359   40.7897   33.3679 O   0  0  0  0  0  0  0  0  0  0  0  0
   10.9129   40.6857   31.9953 C   0  0  0  0  0  0  0  0  0  0  0  0
   11.5167   39.3798   31.4411 C   0  0  0  0  0  0  0  0  0  0  0  0
   12.7486   39.0887   32.0763 O   0  0  0  0  0  0  0  0  0  0  0  0
   10.6050   38.1876   31.6660 C   0  0  0  0  0  0  0  0  0  0  0  0
   12.9411   37.6829   32.0278 C   0  0  0  0  0  0  0  0  0  0  0  0
    9.6358   38.0930   30.6503 O   0  0  0  0  0  0  0  0  0  0  0  0
   11.5827   37.0179   31.6937 C   0  0  0  0  0  0  0  0  0  0  0  0
   13.4908   37.2177   33.3240 N   0  0  0  0  0  0  0  0  0  0  0  0
   11.6141   36.3180   30.4675 O   0  0  0  0  0  0  0  0  0  0  0  0
   14.4762   36.3270   33.5733 C   0  0  0  0  0  0  0  0  0  0  0  0
   13.1178   37.6317   34.5689 C   0  0  0  0  0  0  0  0  0  0  0  0
   15.2066   35.6140   32.6744 N   0  0  0  0  0  0  0  0  0  0  0  0
   14.6731   36.2273   34.9187 C   0  0  0  0  0  0  0  0  0  0  0  0
   13.8222   37.0456   35.5785 N   0  0  0  0  0  0  0  0  0  0  0  0
   16.1638   34.7595   33.1551 C   0  0  0  0  0  0  0  0  0  0  0  0
   15.6515   35.3492   35.4134 C   0  0  0  0  0  0  0  0  0  0  0  0
   16.3792   34.6310   34.5046 N   0  0  0  0  0  0  0  0  0  0  0  0
   15.9002   35.1934   36.8093 N   0  0  0  0  0  0  0  0  0  0  0  0
    9.8048   45.0080   32.1485 H   0  0  0  0  0  0  0  0  0  0  0  0
   10.8088   46.9748   33.1045 H   0  0  0  0  0  0  0  0  0  0  0  0
   11.8886   45.7201   32.9230 H   0  0  0  0  0  0  0  0  0  0  0  0
    7.8034   44.9976   33.5805 H   0  0  0  0  0  0  0  0  0  0  0  0
    8.4272   46.6643   33.4349 H   0  0  0  0  0  0  0  0  0  0  0  0
    7.8522   45.2447   37.9878 H   0  0  0  0  0  0  0  0  0  0  0  0
    9.6257   44.9130   37.8003 H   0  0  0  0  0  0  0  0  0  0  0  0
    7.0283   42.6143   36.4397 H   0  0  0  0  0  0  0  0  0  0  0  0
    9.2994   40.9888   40.5343 H   0  0  0  0  0  0  0  0  0  0  0  0
    6.7391   40.2953   37.1780 H   0  0  0  0  0  0  0  0  0  0  0  0
    7.8942   39.4718   39.2041 H   0  0  0  0  0  0  0  0  0  0  0  0
    9.8228   40.7205   31.7589 H   0  0  0  0  0  0  0  0  0  0  0  0
   11.3848   41.5435   31.4700 H   0  0  0  0  0  0  0  0  0  0  0  0
   11.6990   39.5069   30.3490 H   0  0  0  0  0  0  0  0  0  0  0  0
   10.1118   38.2720   32.6633 H   0  0  0  0  0  0  0  0  0  0  0  0
   13.6816   37.4634   31.2270 H   0  0  0  0  0  0  0  0  0  0  0  0
    9.0035   37.3828   30.9349 H   0  0  0  0  0  0  0  0  0  0  0  0
   11.2846   36.3040   32.4928 H   0  0  0  0  0  0  0  0  0  0  0  0
   11.8849   36.9591   29.7589 H   0  0  0  0  0  0  0  0  0  0  0  0
   12.3362   38.3599   34.7442 H   0  0  0  0  0  0  0  0  0  0  0  0
   16.7574   34.1791   32.4623 H   0  0  0  0  0  0  0  0  0  0  0  0
   15.3529   35.7356   37.5141 H   0  0  0  0  0  0  0  0  0  0  0  0
   16.6362   34.5317   37.1418 H   0  0  0  0  0  0  0  0  0  0  0  0
  1  2  2  0
  1  3  1  0
  3  4  1  0
  4  5  1  0
  6  1  1  0
  7  6  1  0
  6  8  1  0
  8  9  1  0
  9 10  1  0
  9 11  2  0
 10 12  1  0
 12 13  1  0
 13 14  2  0
 15 13  1  0
 14 16  1  0
 14 17  1  0
 18 15  2  0
 16 19  1  0
 16 20  2  0
 17 21  2  0
 21 18  1  0
  4 22  2  0
  4 23  1  0
 24 23  1  0
 24 25  1  0
 25 26  1  0
 25 27  1  0
 26 28  1  0
 27 29  1  0
 27 30  1  0
 30 28  1  0
 28 31  1  0
 30 32  1  0
 33 31  1  0
 34 31  1  0
 35 33  2  0
 33 36  1  0
 37 34  2  0
 38 35  1  0
 36 39  2  0
 36 37  1  0
 40 38  2  0
 40 39  1  0
 39 41  1  0
  6 42  1  6
  7 43  1  0
  7 44  1  0
  8 45  1  0
  8 46  1  0
 12 47  1  0
 12 48  1  0
 15 49  1  0
 17 50  1  0
 18 51  1  0
 21 52  1  0
 24 53  1  0
 24 54  1  0
 25 55  1  0
 27 56  1  0
 28 57  1  0
 29 58  1  0
 30 59  1  0
 32 60  1  0
 34 61  1  0
 38 62  1  0
 41 63  1  0
 41 64  1  0
M  CHG  3   5  -1  16   1  19  -1
M  END
>  <EmbedRMS>  (260) 
0.08778140954965526

$$$$

     RDKit          3D

 64 67  0  0  0  0  0  0  0  0999 V2000
   10.2853   43.7708   33.8073 C   0  0  0  0  0  0  0  0  0  0  0  0
   11.4075   43.5841   34.3634 O   0  0  0  0  0  0  0  0  0  0  0  0
    9.3716   42.7271   33.6992 O   0  0  0  0  0  0  0  0  0  0  0  0
    9.8877   41.2315   34.2849 P   0  0  0  0  0  5  0  0  0  0  0  0
   10.3663   41.4684   35.8756 O   0  0  0  0  0  1  0  0  0  0  0  0
    9.9683   45.1109   33.2254 C   0  0  2  0  0  0  0  0  0  0  0  0
   11.0576   46.0521   33.4943 N   0  0  0  0  0  0  0  0  0  0  0  0
    8.6427   45.6773   33.7780 C   0  0  0  0  0  0  0  0  0  0  0  0
    7.4588   45.1408   33.0287 C   0  0  0  0  0  0  0  0  0  0  0  0
    6.9678   43.8694   33.3331 O   0  0  0  0  0  0  0  0  0  0  0  0
    6.9493   45.8187   32.0949 O   0  0  0  0  0  0  0  0  0  0  0  0
    5.9584   43.2228   32.5654 C   0  0  0  0  0  0  0  0  0  0  0  0
    5.8387   41.7837   33.0032 C   0  0  0  0  0  0  0  0  0  0  0  0
    5.5539   41.4211   34.3491 C   0  0  0  0  0  0  0  0  0  0  0  0
    6.0781   40.7698   32.0560 C   0  0  0  0  0  0  0  0  0  0  0  0
    5.3154   42.4037   35.3742 N   0  0  0  0  0  4  0  0  0  0  0  0
    5.5310   40.0590   34.6996 C   0  0  0  0  0  0  0  0  0  0  0  0
    6.0393   39.4249   32.4248 C   0  0  0  0  0  0  0  0  0  0  0  0
    5.6373   42.1228   36.6822 O   0  0  0  0  0  1  0  0  0  0  0  0
    4.6800   43.4484   35.1257 O   0  0  0  0  0  0  0  0  0  0  0  0
    5.7667   39.0703   33.7437 C   0  0  0  0  0  0  0  0  0  0  0  0
    8.8115   40.1884   34.2089 O   0  0  0  0  0  0  0  0  0  0  0  0
   11.2395   40.7889   33.3688 O   0  0  0  0  0  0  0  0  0  0  0  0
   10.9182   40.6888   31.9955 C   0  0  0  0  0  0  0  0  0  0  0  0
   11.5160   39.3800   31.4397 C   0  0  0  0  0  0  0  0  0  0  0  0
   12.7471   39.0861   32.0729 O   0  0  0  0  0  0  0  0  0  0  0  0
   10.6020   38.1891   31.6670 C   0  0  0  0  0  0  0  0  0  0  0  0
   12.9328   37.6796   32.0279 C   0  0  0  0  0  0  0  0  0  0  0  0
    9.6380   38.0782   30.6464 O   0  0  0  0  0  0  0  0  0  0  0  0
   11.5730   37.0154   31.7058 C   0  0  0  0  0  0  0  0  0  0  0  0
   13.4899   37.2179   33.3230 N   0  0  0  0  0  0  0  0  0  0  0  0
   11.6203   36.3378   30.4694 O   0  0  0  0  0  0  0  0  0  0  0  0
   14.4759   36.3274   33.5724 C   0  0  0  0  0  0  0  0  0  0  0  0
   13.1176   37.6317   34.5684 C   0  0  0  0  0  0  0  0  0  0  0  0
   15.2062   35.6140   32.6737 N   0  0  0  0  0  0  0  0  0  0  0  0
   14.6732   36.2278   34.9179 C   0  0  0  0  0  0  0  0  0  0  0  0
   13.8224   37.0459   35.5779 N   0  0  0  0  0  0  0  0  0  0  0  0
   16.1635   34.7596   33.1545 C   0  0  0  0  0  0  0  0  0  0  0  0
   15.6514   35.3495   35.4128 C   0  0  0  0  0  0  0  0  0  0  0  0
   16.3790   34.6312   34.5040 N   0  0  0  0  0  0  0  0  0  0  0  0
   15.9001   35.1936   36.8087 N   0  0  0  0  0  0  0  0  0  0  0  0
    9.8853   44.9961   32.1212 H   0  0  0  0  0  0  0  0  0  0  0  0
   11.9368   45.7112   33.0400 H   0  0  0  0  0  0  0  0  0  0  0  0
   11.2217   46.1266   34.5258 H   0  0  0  0  0  0  0  0  0  0  0  0
    8.6428   46.7858   33.6821 H   0  0  0  0  0  0  0  0  0  0  0  0
    8.5372   45.4432   34.8600 H   0  0  0  0  0  0  0  0  0  0  0  0
    6.2291   43.2829   31.4879 H   0  0  0  0  0  0  0  0  0  0  0  0
    4.9868   43.7454   32.6873 H   0  0  0  0  0  0  0  0  0  0  0  0
    6.3080   41.0182   31.0272 H   0  0  0  0  0  0  0  0  0  0  0  0
    5.3191   39.7593   35.7181 H   0  0  0  0  0  0  0  0  0  0  0  0
    6.2292   38.6561   31.6869 H   0  0  0  0  0  0  0  0  0  0  0  0
    5.7420   38.0262   34.0280 H   0  0  0  0  0  0  0  0  0  0  0  0
   11.3984   41.5436   31.4731 H   0  0  0  0  0  0  0  0  0  0  0  0
    9.8296   40.7383   31.7570 H   0  0  0  0  0  0  0  0  0  0  0  0
   11.6966   39.5043   30.3470 H   0  0  0  0  0  0  0  0  0  0  0  0
   10.1078   38.2632   32.6654 H   0  0  0  0  0  0  0  0  0  0  0  0
   13.6647   37.4539   31.2205 H   0  0  0  0  0  0  0  0  0  0  0  0
    8.8953   38.6911   30.8863 H   0  0  0  0  0  0  0  0  0  0  0  0
   11.2838   36.3059   32.5175 H   0  0  0  0  0  0  0  0  0  0  0  0
   10.8509   35.7104   30.4584 H   0  0  0  0  0  0  0  0  0  0  0  0
   12.3351   38.3588   34.7441 H   0  0  0  0  0  0  0  0  0  0  0  0
   16.7567   34.1789   32.4618 H   0  0  0  0  0  0  0  0  0  0  0  0
   15.3528   35.7359   37.5136 H   0  0  0  0  0  0  0  0  0  0  0  0
   16.6359   34.5317   37.1413 H   0  0  0  0  0  0  0  0  0  0  0  0
  1  2  2  0
  1  3  1  0
  3  4  1  0
  4  5  1  0
  6  1  1  0
  7  6  1  0
  6  8  1  0
  8  9  1  0
  9 10  1  0
  9 11  2  0
 10 12  1  0
 12 13  1  0
 13 14  2  0
 15 13  1  0
 14 16  1  0
 14 17  1  0
 18 15  2  0
 16 19  1  0
 16 20  2  0
 17 21  2  0
 21 18  1  0
  4 22  2  0
  4 23  1  0
 24 23  1  0
 24 25  1  0
 25 26  1  0
 25 27  1  0
 26 28  1  0
 27 29  1  0
 27 30  1  0
 30 28  1  0
 28 31  1  0
 30 32  1  0
 33 31  1  0
 34 31  1  0
 35 33  2  0
 33 36  1  0
 37 34  2  0
 38 35  1  0
 36 39  2  0
 36 37  1  0
 40 38  2  0
 40 39  1  0
 39 41  1  0
  6 42  1  6
  7 43  1  0
  7 44  1  0
  8 45  1  0
  8 46  1  0
 12 47  1  0
 12 48  1  0
 15 49  1  0
 17 50  1  0
 18 51  1  0
 21 52  1  0
 24 53  1  0
 24 54  1  0
 25 55  1  0
 27 56  1  0
 28 57  1  0
 29 58  1  0
 30 59  1  0
 32 60  1  0
 34 61  1  0
 38 62  1  0
 41 63  1  0
 41 64  1  0
M  CHG  3   5  -1  16   1  19  -1
M  END
>  <EmbedRMS>  (261) 
0.09006999446578672

$$$$

     RDKit          3D

 64 67  0  0  0  0  0  0  0  0999 V2000
   10.2846   43.7741   33.8067 C   0  0  0  0  0  0  0  0  0  0  0  0
   11.4069   43.5900   34.3637 O   0  0  0  0  0  0  0  0  0  0  0  0
    9.3678   42.7312   33.6991 O   0  0  0  0  0  0  0  0  0  0  0  0
    9.8855   41.2344   34.2840 P   0  0  0  0  0  5  0  0  0  0  0  0
   10.3659   41.4698   35.8746 O   0  0  0  0  0  1  0  0  0  0  0  0
    9.9497   45.1162   33.2547 C   0  0  2  0  0  0  0  0  0  0  0  0
   11.0749   46.0288   33.4732 N   0  0  0  0  0  0  0  0  0  0  0  0
    8.6773   45.6514   33.9419 C   0  0  0  0  0  0  0  0  0  0  0  0
    8.2061   46.9321   33.3248 C   0  0  0  0  0  0  0  0  0  0  0  0
    8.2841   48.1205   34.0595 O   0  0  0  0  0  0  0  0  0  0  0  0
    7.7532   46.9307   32.1473 O   0  0  0  0  0  0  0  0  0  0  0  0
    7.9562   49.3963   33.5131 C   0  0  0  0  0  0  0  0  0  0  0  0
    9.0169   49.8424   32.5335 C   0  0  0  0  0  0  0  0  0  0  0  0
   10.3900   49.9343   32.8914 C   0  0  0  0  0  0  0  0  0  0  0  0
    8.6318   50.1242   31.2097 C   0  0  0  0  0  0  0  0  0  0  0  0
   10.8495   49.6681   34.2305 N   0  0  0  0  0  4  0  0  0  0  0  0
   11.3318   50.2764   31.9029 C   0  0  0  0  0  0  0  0  0  0  0  0
    9.5814   50.4764   30.2504 C   0  0  0  0  0  0  0  0  0  0  0  0
   10.1178   50.0756   35.3210 O   0  0  0  0  0  1  0  0  0  0  0  0
   11.9956   49.2097   34.4185 O   0  0  0  0  0  0  0  0  0  0  0  0
   10.9290   50.5480   30.5951 C   0  0  0  0  0  0  0  0  0  0  0  0
    8.8081   40.1914   34.2083 O   0  0  0  0  0  0  0  0  0  0  0  0
   11.2373   40.7904   33.3686 O   0  0  0  0  0  0  0  0  0  0  0  0
   10.9157   40.6897   31.9957 C   0  0  0  0  0  0  0  0  0  0  0  0
   11.5271   39.3897   31.4372 C   0  0  0  0  0  0  0  0  0  0  0  0
   12.7508   39.0915   32.0838 O   0  0  0  0  0  0  0  0  0  0  0  0
   10.6122   38.1916   31.6452 C   0  0  0  0  0  0  0  0  0  0  0  0
   12.9429   37.6852   32.0295 C   0  0  0  0  0  0  0  0  0  0  0  0
    9.6070   38.0858   30.6603 O   0  0  0  0  0  0  0  0  0  0  0  0
   11.5845   37.0185   31.6879 C   0  0  0  0  0  0  0  0  0  0  0  0
   13.4899   37.2163   33.3250 N   0  0  0  0  0  0  0  0  0  0  0  0
   11.6201   36.3062   30.4693 O   0  0  0  0  0  0  0  0  0  0  0  0
   14.4759   36.3263   33.5738 C   0  0  0  0  0  0  0  0  0  0  0  0
   13.1176   37.6307   34.5699 C   0  0  0  0  0  0  0  0  0  0  0  0
   15.2065   35.6139   32.6746 N   0  0  0  0  0  0  0  0  0  0  0  0
   14.6731   36.2267   34.9191 C   0  0  0  0  0  0  0  0  0  0  0  0
   13.8224   37.0450   35.5792 N   0  0  0  0  0  0  0  0  0  0  0  0
   16.1640   34.7596   33.1551 C   0  0  0  0  0  0  0  0  0  0  0  0
   15.6517   35.3489   35.4136 C   0  0  0  0  0  0  0  0  0  0  0  0
   16.3795   34.6310   34.5046 N   0  0  0  0  0  0  0  0  0  0  0  0
   15.9006   35.1931   36.8094 N   0  0  0  0  0  0  0  0  0  0  0  0
    9.7649   45.0047   32.1620 H   0  0  0  0  0  0  0  0  0  0  0  0
   11.8997   45.6717   32.9367 H   0  0  0  0  0  0  0  0  0  0  0  0
   10.8487   46.9486   33.0316 H   0  0  0  0  0  0  0  0  0  0  0  0
    7.8557   44.9073   33.8546 H   0  0  0  0  0  0  0  0  0  0  0  0
    8.8746   45.8130   35.0246 H   0  0  0  0  0  0  0  0  0  0  0  0
    7.8706   50.1389   34.3316 H   0  0  0  0  0  0  0  0  0  0  0  0
    6.9515   49.3450   33.0383 H   0  0  0  0  0  0  0  0  0  0  0  0
    7.5924   50.0591   30.9123 H   0  0  0  0  0  0  0  0  0  0  0  0
   12.3836   50.3476   32.1498 H   0  0  0  0  0  0  0  0  0  0  0  0
    9.2718   50.6871   29.2348 H   0  0  0  0  0  0  0  0  0  0  0  0
   11.6643   50.8169   29.8476 H   0  0  0  0  0  0  0  0  0  0  0  0
   11.3828   41.5525   31.4742 H   0  0  0  0  0  0  0  0  0  0  0  0
    9.8256   40.7191   31.7584 H   0  0  0  0  0  0  0  0  0  0  0  0
   11.7320   39.5336   30.3518 H   0  0  0  0  0  0  0  0  0  0  0  0
   10.1215   38.2683   32.6412 H   0  0  0  0  0  0  0  0  0  0  0  0
   13.6882   37.4706   31.2319 H   0  0  0  0  0  0  0  0  0  0  0  0
   10.0256   38.1750   29.7656 H   0  0  0  0  0  0  0  0  0  0  0  0
   11.2795   36.3123   32.4915 H   0  0  0  0  0  0  0  0  0  0  0  0
   11.9872   36.9099   29.7714 H   0  0  0  0  0  0  0  0  0  0  0  0
   12.3365   38.3595   34.7453 H   0  0  0  0  0  0  0  0  0  0  0  0
   16.7577   34.1794   32.4622 H   0  0  0  0  0  0  0  0  0  0  0  0
   16.6368   34.5316   37.1418 H   0  0  0  0  0  0  0  0  0  0  0  0
   15.3532   35.7351   37.5143 H   0  0  0  0  0  0  0  0  0  0  0  0
  1  2  2  0
  1  3  1  0
  3  4  1  0
  4  5  1  0
  6  1  1  0
  7  6  1  0
  6  8  1  0
  8  9  1  0
  9 10  1  0
  9 11  2  0
 10 12  1  0
 12 13  1  0
 13 14  2  0
 15 13  1  0
 14 16  1  0
 14 17  1  0
 18 15  2  0
 16 19  1  0
 16 20  2  0
 17 21  2  0
 21 18  1  0
  4 22  2  0
  4 23  1  0
 24 23  1  0
 24 25  1  0
 25 26  1  0
 25 27  1  0
 26 28  1  0
 27 29  1  0
 27 30  1  0
 30 28  1  0
 28 31  1  0
 30 32  1  0
 33 31  1  0
 34 31  1  0
 35 33  2  0
 33 36  1  0
 37 34  2  0
 38 35  1  0
 36 39  2  0
 36 37  1  0
 40 38  2  0
 40 39  1  0
 39 41  1  0
  6 42  1  6
  7 43  1  0
  7 44  1  0
  8 45  1  0
  8 46  1  0
 12 47  1  0
 12 48  1  0
 15 49  1  0
 17 50  1  0
 18 51  1  0
 21 52  1  0
 24 53  1  0
 24 54  1  0
 25 55  1  0
 27 56  1  0
 28 57  1  0
 29 58  1  0
 30 59  1  0
 32 60  1  0
 34 61  1  0
 38 62  1  0
 41 63  1  0
 41 64  1  0
M  CHG  3   5  -1  16   1  19  -1
M  END
>  <EmbedRMS>  (262) 
0.08707680942979948

$$$$

     RDKit          3D

 64 67  0  0  0  0  0  0  0  0999 V2000
   10.2859   43.7720   33.8046 C   0  0  0  0  0  0  0  0  0  0  0  0
   11.4085   43.5885   34.3611 O   0  0  0  0  0  0  0  0  0  0  0  0
    9.3675   42.7309   33.6991 O   0  0  0  0  0  0  0  0  0  0  0  0
    9.8857   41.2340   34.2830 P   0  0  0  0  0  5  0  0  0  0  0  0
   10.3665   41.4697   35.8735 O   0  0  0  0  0  1  0  0  0  0  0  0
    9.9529   45.1149   33.2536 C   0  0  2  0  0  0  0  0  0  0  0  0
   11.0715   46.0331   33.4765 N   0  0  0  0  0  0  0  0  0  0  0  0
    8.6603   45.6658   33.8897 C   0  0  0  0  0  0  0  0  0  0  0  0
    8.7912   45.8567   35.3718 C   0  0  0  0  0  0  0  0  0  0  0  0
    9.4361   46.9947   35.8631 O   0  0  0  0  0  0  0  0  0  0  0  0
    8.3523   44.9747   36.1597 O   0  0  0  0  0  0  0  0  0  0  0  0
    9.6339   47.2279   37.2552 C   0  0  0  0  0  0  0  0  0  0  0  0
   10.3668   48.5301   37.4892 C   0  0  0  0  0  0  0  0  0  0  0  0
   11.1538   48.7395   38.6543 C   0  0  0  0  0  0  0  0  0  0  0  0
   10.2482   49.5740   36.5495 C   0  0  0  0  0  0  0  0  0  0  0  0
   11.2388   47.7568   39.7015 N   0  0  0  0  0  4  0  0  0  0  0  0
   11.8636   49.9448   38.7967 C   0  0  0  0  0  0  0  0  0  0  0  0
   10.9458   50.7704   36.7207 C   0  0  0  0  0  0  0  0  0  0  0  0
   12.3866   47.6521   40.4531 O   0  0  0  0  0  1  0  0  0  0  0  0
   10.2222   47.1321   40.0680 O   0  0  0  0  0  0  0  0  0  0  0  0
   11.7611   50.9508   37.8356 C   0  0  0  0  0  0  0  0  0  0  0  0
    8.8079   40.1914   34.2081 O   0  0  0  0  0  0  0  0  0  0  0  0
   11.2373   40.7902   33.3661 O   0  0  0  0  0  0  0  0  0  0  0  0
   10.9145   40.6850   31.9932 C   0  0  0  0  0  0  0  0  0  0  0  0
   11.5167   39.3773   31.4393 C   0  0  0  0  0  0  0  0  0  0  0  0
   12.7473   39.0854   32.0739 O   0  0  0  0  0  0  0  0  0  0  0  0
   10.6047   38.1867   31.6670 C   0  0  0  0  0  0  0  0  0  0  0  0
   12.9346   37.6790   32.0282 C   0  0  0  0  0  0  0  0  0  0  0  0
    9.6378   38.0917   30.6489 O   0  0  0  0  0  0  0  0  0  0  0  0
   11.5761   37.0129   31.7057 C   0  0  0  0  0  0  0  0  0  0  0  0
   13.4909   37.2177   33.3234 N   0  0  0  0  0  0  0  0  0  0  0  0
   11.6234   36.3371   30.4684 O   0  0  0  0  0  0  0  0  0  0  0  0
   14.4765   36.3272   33.5727 C   0  0  0  0  0  0  0  0  0  0  0  0
   13.1182   37.6315   34.5685 C   0  0  0  0  0  0  0  0  0  0  0  0
   15.2066   35.6137   32.6739 N   0  0  0  0  0  0  0  0  0  0  0  0
   14.6736   36.2276   34.9182 C   0  0  0  0  0  0  0  0  0  0  0  0
   13.8227   37.0457   35.5781 N   0  0  0  0  0  0  0  0  0  0  0  0
   16.1638   34.7592   33.1548 C   0  0  0  0  0  0  0  0  0  0  0  0
   15.6517   35.3492   35.4131 C   0  0  0  0  0  0  0  0  0  0  0  0
   16.3792   34.6309   34.5043 N   0  0  0  0  0  0  0  0  0  0  0  0
   15.9003   35.1934   36.8090 N   0  0  0  0  0  0  0  0  0  0  0  0
    9.7828   45.0057   32.1588 H   0  0  0  0  0  0  0  0  0  0  0  0
   11.8821   45.7132   32.8967 H   0  0  0  0  0  0  0  0  0  0  0  0
   10.8099   46.9723   33.0970 H   0  0  0  0  0  0  0  0  0  0  0  0
    8.4080   46.6430   33.4245 H   0  0  0  0  0  0  0  0  0  0  0  0
    7.8129   44.9783   33.6744 H   0  0  0  0  0  0  0  0  0  0  0  0
    8.6494   47.2707   37.7688 H   0  0  0  0  0  0  0  0  0  0  0  0
   10.2259   46.3807   37.6634 H   0  0  0  0  0  0  0  0  0  0  0  0
    9.6225   49.4635   35.6728 H   0  0  0  0  0  0  0  0  0  0  0  0
   12.4784   50.1180   39.6708 H   0  0  0  0  0  0  0  0  0  0  0  0
   10.8556   51.5589   35.9846 H   0  0  0  0  0  0  0  0  0  0  0  0
   12.3033   51.8787   37.9640 H   0  0  0  0  0  0  0  0  0  0  0  0
   11.3875   41.5415   31.4671 H   0  0  0  0  0  0  0  0  0  0  0  0
    9.8244   40.7213   31.7565 H   0  0  0  0  0  0  0  0  0  0  0  0
   11.6987   39.5012   30.3467 H   0  0  0  0  0  0  0  0  0  0  0  0
   10.1096   38.2771   32.6629 H   0  0  0  0  0  0  0  0  0  0  0  0
   13.6672   37.4544   31.2213 H   0  0  0  0  0  0  0  0  0  0  0  0
    8.9779   37.4157   30.9533 H   0  0  0  0  0  0  0  0  0  0  0  0
   11.2861   36.3041   32.5177 H   0  0  0  0  0  0  0  0  0  0  0  0
   10.8690   35.6918   30.4657 H   0  0  0  0  0  0  0  0  0  0  0  0
   12.3355   38.3586   34.7439 H   0  0  0  0  0  0  0  0  0  0  0  0
   16.7572   34.1786   32.4621 H   0  0  0  0  0  0  0  0  0  0  0  0
   16.6361   34.5315   37.1415 H   0  0  0  0  0  0  0  0  0  0  0  0
   15.3530   35.7358   37.5138 H   0  0  0  0  0  0  0  0  0  0  0  0
  1  2  2  0
  1  3  1  0
  3  4  1  0
  4  5  1  0
  6  1  1  0
  7  6  1  0
  6  8  1  0
  8  9  1  0
  9 10  1  0
  9 11  2  0
 10 12  1  0
 12 13  1  0
 13 14  2  0
 15 13  1  0
 14 16  1  0
 14 17  1  0
 18 15  2  0
 16 19  1  0
 16 20  2  0
 17 21  2  0
 21 18  1  0
  4 22  2  0
  4 23  1  0
 24 23  1  0
 24 25  1  0
 25 26  1  0
 25 27  1  0
 26 28  1  0
 27 29  1  0
 27 30  1  0
 30 28  1  0
 28 31  1  0
 30 32  1  0
 33 31  1  0
 34 31  1  0
 35 33  2  0
 33 36  1  0
 37 34  2  0
 38 35  1  0
 36 39  2  0
 36 37  1  0
 40 38  2  0
 40 39  1  0
 39 41  1  0
  6 42  1  6
  7 43  1  0
  7 44  1  0
  8 45  1  0
  8 46  1  0
 12 47  1  0
 12 48  1  0
 15 49  1  0
 17 50  1  0
 18 51  1  0
 21 52  1  0
 24 53  1  0
 24 54  1  0
 25 55  1  0
 27 56  1  0
 28 57  1  0
 29 58  1  0
 30 59  1  0
 32 60  1  0
 34 61  1  0
 38 62  1  0
 41 63  1  0
 41 64  1  0
M  CHG  3   5  -1  16   1  19  -1
M  END
>  <EmbedRMS>  (263) 
0.08902023560125763

$$$$

     RDKit          3D

 64 67  0  0  0  0  0  0  0  0999 V2000
   10.2880   43.7703   33.7984 C   0  0  0  0  0  0  0  0  0  0  0  0
   11.4092   43.5872   34.3577 O   0  0  0  0  0  0  0  0  0  0  0  0
    9.3675   42.7305   33.6978 O   0  0  0  0  0  0  0  0  0  0  0  0
    9.8847   41.2345   34.2855 P   0  0  0  0  0  5  0  0  0  0  0  0
   10.3682   41.4709   35.8748 O   0  0  0  0  0  1  0  0  0  0  0  0
    9.9557   45.1146   33.2467 C   0  0  2  0  0  0  0  0  0  0  0  0
   11.0668   46.0366   33.4888 N   0  0  0  0  0  0  0  0  0  0  0  0
    8.6503   45.6616   33.8614 C   0  0  0  0  0  0  0  0  0  0  0  0
    8.7189   45.7511   35.3569 C   0  0  0  0  0  0  0  0  0  0  0  0
    8.4911   44.6000   36.1148 O   0  0  0  0  0  0  0  0  0  0  0  0
    9.0225   46.8417   35.9127 O   0  0  0  0  0  0  0  0  0  0  0  0
    8.6102   44.5626   37.5333 C   0  0  0  0  0  0  0  0  0  0  0  0
    8.3970   43.1557   38.0444 C   0  0  0  0  0  0  0  0  0  0  0  0
    9.0394   42.6862   39.2204 C   0  0  0  0  0  0  0  0  0  0  0  0
    7.5360   42.2874   37.3433 C   0  0  0  0  0  0  0  0  0  0  0  0
    9.8431   43.5541   40.0385 N   0  0  0  0  0  4  0  0  0  0  0  0
    8.8740   41.3429   39.6043 C   0  0  0  0  0  0  0  0  0  0  0  0
    7.3726   40.9630   37.7506 C   0  0  0  0  0  0  0  0  0  0  0  0
    9.4243   44.8361   40.3111 O   0  0  0  0  0  1  0  0  0  0  0  0
   10.8248   43.0973   40.6603 O   0  0  0  0  0  0  0  0  0  0  0  0
    8.0499   40.4882   38.8715 C   0  0  0  0  0  0  0  0  0  0  0  0
    8.8069   40.1919   34.2117 O   0  0  0  0  0  0  0  0  0  0  0  0
   11.2360   40.7891   33.3698 O   0  0  0  0  0  0  0  0  0  0  0  0
   10.9148   40.6894   31.9967 C   0  0  0  0  0  0  0  0  0  0  0  0
   11.5267   39.3898   31.4375 C   0  0  0  0  0  0  0  0  0  0  0  0
   12.7506   39.0917   32.0838 O   0  0  0  0  0  0  0  0  0  0  0  0
   10.6121   38.1915   31.6452 C   0  0  0  0  0  0  0  0  0  0  0  0
   12.9429   37.6853   32.0295 C   0  0  0  0  0  0  0  0  0  0  0  0
    9.6069   38.0857   30.6602 O   0  0  0  0  0  0  0  0  0  0  0  0
   11.5845   37.0186   31.6879 C   0  0  0  0  0  0  0  0  0  0  0  0
   13.4899   37.2164   33.3250 N   0  0  0  0  0  0  0  0  0  0  0  0
   11.6201   36.3062   30.4693 O   0  0  0  0  0  0  0  0  0  0  0  0
   14.4759   36.3265   33.5739 C   0  0  0  0  0  0  0  0  0  0  0  0
   13.1174   37.6308   34.5699 C   0  0  0  0  0  0  0  0  0  0  0  0
   15.2064   35.6139   32.6747 N   0  0  0  0  0  0  0  0  0  0  0  0
   14.6731   36.2269   34.9191 C   0  0  0  0  0  0  0  0  0  0  0  0
   13.8223   37.0451   35.5792 N   0  0  0  0  0  0  0  0  0  0  0  0
   16.1638   34.7595   33.1552 C   0  0  0  0  0  0  0  0  0  0  0  0
   15.6517   35.3490   35.4136 C   0  0  0  0  0  0  0  0  0  0  0  0
   16.3794   34.6309   34.5046 N   0  0  0  0  0  0  0  0  0  0  0  0
   15.9005   35.1932   36.8094 N   0  0  0  0  0  0  0  0  0  0  0  0
    9.8042   45.0083   32.1489 H   0  0  0  0  0  0  0  0  0  0  0  0
   11.8883   45.7201   32.9225 H   0  0  0  0  0  0  0  0  0  0  0  0
   10.8086   46.9748   33.1046 H   0  0  0  0  0  0  0  0  0  0  0  0
    8.4274   46.6647   33.4368 H   0  0  0  0  0  0  0  0  0  0  0  0
    7.8034   44.9980   33.5817 H   0  0  0  0  0  0  0  0  0  0  0  0
    7.8538   45.2363   37.9895 H   0  0  0  0  0  0  0  0  0  0  0  0
    9.6291   44.9155   37.8007 H   0  0  0  0  0  0  0  0  0  0  0  0
    7.0021   42.6267   36.4644 H   0  0  0  0  0  0  0  0  0  0  0  0
    9.3660   40.9624   40.4906 H   0  0  0  0  0  0  0  0  0  0  0  0
    6.7231   40.3017   37.1916 H   0  0  0  0  0  0  0  0  0  0  0  0
    7.9240   39.4593   39.1831 H   0  0  0  0  0  0  0  0  0  0  0  0
   11.3816   41.5527   31.4759 H   0  0  0  0  0  0  0  0  0  0  0  0
    9.8247   40.7184   31.7596 H   0  0  0  0  0  0  0  0  0  0  0  0
   11.7313   39.5342   30.3522 H   0  0  0  0  0  0  0  0  0  0  0  0
   10.1212   38.2680   32.6412 H   0  0  0  0  0  0  0  0  0  0  0  0
   13.6881   37.4709   31.2318 H   0  0  0  0  0  0  0  0  0  0  0  0
   10.0256   38.1752   29.7656 H   0  0  0  0  0  0  0  0  0  0  0  0
   11.2796   36.3123   32.4915 H   0  0  0  0  0  0  0  0  0  0  0  0
   11.9873   36.9097   29.7714 H   0  0  0  0  0  0  0  0  0  0  0  0
   12.3361   38.3593   34.7453 H   0  0  0  0  0  0  0  0  0  0  0  0
   16.7571   34.1790   32.4623 H   0  0  0  0  0  0  0  0  0  0  0  0
   15.3531   35.7352   37.5143 H   0  0  0  0  0  0  0  0  0  0  0  0
   16.6368   34.5316   37.1417 H   0  0  0  0  0  0  0  0  0  0  0  0
  1  2  2  0
  1  3  1  0
  3  4  1  0
  4  5  1  0
  6  1  1  0
  7  6  1  0
  6  8  1  0
  8  9  1  0
  9 10  1  0
  9 11  2  0
 10 12  1  0
 12 13  1  0
 13 14  2  0
 15 13  1  0
 14 16  1  0
 14 17  1  0
 18 15  2  0
 16 19  1  0
 16 20  2  0
 17 21  2  0
 21 18  1  0
  4 22  2  0
  4 23  1  0
 24 23  1  0
 24 25  1  0
 25 26  1  0
 25 27  1  0
 26 28  1  0
 27 29  1  0
 27 30  1  0
 30 28  1  0
 28 31  1  0
 30 32  1  0
 33 31  1  0
 34 31  1  0
 35 33  2  0
 33 36  1  0
 37 34  2  0
 38 35  1  0
 36 39  2  0
 36 37  1  0
 40 38  2  0
 40 39  1  0
 39 41  1  0
  6 42  1  6
  7 43  1  0
  7 44  1  0
  8 45  1  0
  8 46  1  0
 12 47  1  0
 12 48  1  0
 15 49  1  0
 17 50  1  0
 18 51  1  0
 21 52  1  0
 24 53  1  0
 24 54  1  0
 25 55  1  0
 27 56  1  0
 28 57  1  0
 29 58  1  0
 30 59  1  0
 32 60  1  0
 34 61  1  0
 38 62  1  0
 41 63  1  0
 41 64  1  0
M  CHG  3   5  -1  16   1  19  -1
M  END
>  <EmbedRMS>  (264) 
0.08692442398430211

$$$$

     RDKit          3D

 64 67  0  0  0  0  0  0  0  0999 V2000
   10.2862   43.7717   33.8039 C   0  0  0  0  0  0  0  0  0  0  0  0
   11.4114   43.5869   34.3543 O   0  0  0  0  0  0  0  0  0  0  0  0
    9.3669   42.7311   33.7001 O   0  0  0  0  0  0  0  0  0  0  0  0
    9.8847   41.2346   34.2852 P   0  0  0  0  0  5  0  0  0  0  0  0
   10.3651   41.4711   35.8756 O   0  0  0  0  0  1  0  0  0  0  0  0
    9.9566   45.1117   33.2467 C   0  0  2  0  0  0  0  0  0  0  0  0
   11.0671   46.0364   33.4860 N   0  0  0  0  0  0  0  0  0  0  0  0
    8.6225   45.6579   33.8045 C   0  0  0  0  0  0  0  0  0  0  0  0
    8.6136   45.7631   35.3013 C   0  0  0  0  0  0  0  0  0  0  0  0
    8.3912   44.6128   36.0688 O   0  0  0  0  0  0  0  0  0  0  0  0
    8.8240   46.8773   35.8537 O   0  0  0  0  0  0  0  0  0  0  0  0
    8.4178   44.5990   37.4963 C   0  0  0  0  0  0  0  0  0  0  0  0
    7.0629   44.8844   38.1180 C   0  0  0  0  0  0  0  0  0  0  0  0
    6.8335   44.6409   39.5018 C   0  0  0  0  0  0  0  0  0  0  0  0
    5.9985   45.3722   37.3294 C   0  0  0  0  0  0  0  0  0  0  0  0
    7.8706   44.1555   40.3752 N   0  0  0  0  0  4  0  0  0  0  0  0
    5.5514   44.8597   40.0365 C   0  0  0  0  0  0  0  0  0  0  0  0
    4.7395   45.5970   37.8870 C   0  0  0  0  0  0  0  0  0  0  0  0
    7.5442   43.3710   41.4576 O   0  0  0  0  0  1  0  0  0  0  0  0
    9.0423   44.5715   40.2696 O   0  0  0  0  0  0  0  0  0  0  0  0
    4.5151   45.3375   39.2358 C   0  0  0  0  0  0  0  0  0  0  0  0
    8.8073   40.1916   34.2096 O   0  0  0  0  0  0  0  0  0  0  0  0
   11.2365   40.7903   33.3696 O   0  0  0  0  0  0  0  0  0  0  0  0
   10.9152   40.6897   31.9965 C   0  0  0  0  0  0  0  0  0  0  0  0
   11.5268   39.3899   31.4376 C   0  0  0  0  0  0  0  0  0  0  0  0
   12.7507   39.0917   32.0840 O   0  0  0  0  0  0  0  0  0  0  0  0
   10.6121   38.1916   31.6453 C   0  0  0  0  0  0  0  0  0  0  0  0
   12.9429   37.6853   32.0295 C   0  0  0  0  0  0  0  0  0  0  0  0
    9.6070   38.0858   30.6603 O   0  0  0  0  0  0  0  0  0  0  0  0
   11.5845   37.0186   31.6880 C   0  0  0  0  0  0  0  0  0  0  0  0
   13.4899   37.2164   33.3250 N   0  0  0  0  0  0  0  0  0  0  0  0
   11.6201   36.3063   30.4693 O   0  0  0  0  0  0  0  0  0  0  0  0
   14.4759   36.3263   33.5738 C   0  0  0  0  0  0  0  0  0  0  0  0
   13.1175   37.6307   34.5699 C   0  0  0  0  0  0  0  0  0  0  0  0
   15.2065   35.6139   32.6746 N   0  0  0  0  0  0  0  0  0  0  0  0
   14.6731   36.2267   34.9191 C   0  0  0  0  0  0  0  0  0  0  0  0
   13.8224   37.0450   35.5792 N   0  0  0  0  0  0  0  0  0  0  0  0
   16.1640   34.7596   33.1551 C   0  0  0  0  0  0  0  0  0  0  0  0
   15.6518   35.3489   35.4136 C   0  0  0  0  0  0  0  0  0  0  0  0
   16.3795   34.6310   34.5045 N   0  0  0  0  0  0  0  0  0  0  0  0
   15.9006   35.1931   36.8094 N   0  0  0  0  0  0  0  0  0  0  0  0
    9.8404   44.9891   32.1475 H   0  0  0  0  0  0  0  0  0  0  0  0
   10.8581   46.9414   33.0051 H   0  0  0  0  0  0  0  0  0  0  0  0
   11.1515   46.2400   34.5086 H   0  0  0  0  0  0  0  0  0  0  0  0
    8.4173   46.6560   33.3598 H   0  0  0  0  0  0  0  0  0  0  0  0
    7.7914   44.9893   33.4918 H   0  0  0  0  0  0  0  0  0  0  0  0
    9.1702   45.3271   37.8683 H   0  0  0  0  0  0  0  0  0  0  0  0
    8.7421   43.5842   37.8099 H   0  0  0  0  0  0  0  0  0  0  0  0
    6.1226   45.5713   36.2748 H   0  0  0  0  0  0  0  0  0  0  0  0
    5.3568   44.6754   41.0854 H   0  0  0  0  0  0  0  0  0  0  0  0
    3.9326   45.9677   37.2679 H   0  0  0  0  0  0  0  0  0  0  0  0
    3.5358   45.5092   39.6637 H   0  0  0  0  0  0  0  0  0  0  0  0
    9.8251   40.7189   31.7594 H   0  0  0  0  0  0  0  0  0  0  0  0
   11.3820   41.5527   31.4753 H   0  0  0  0  0  0  0  0  0  0  0  0
   11.7316   39.5341   30.3523 H   0  0  0  0  0  0  0  0  0  0  0  0
   10.1213   38.2681   32.6413 H   0  0  0  0  0  0  0  0  0  0  0  0
   13.6882   37.4709   31.2319 H   0  0  0  0  0  0  0  0  0  0  0  0
   10.0257   38.1752   29.7656 H   0  0  0  0  0  0  0  0  0  0  0  0
   11.2796   36.3124   32.4916 H   0  0  0  0  0  0  0  0  0  0  0  0
   11.9871   36.9100   29.7715 H   0  0  0  0  0  0  0  0  0  0  0  0
   12.3365   38.3595   34.7454 H   0  0  0  0  0  0  0  0  0  0  0  0
   16.7576   34.1794   32.4622 H   0  0  0  0  0  0  0  0  0  0  0  0
   16.6368   34.5316   37.1418 H   0  0  0  0  0  0  0  0  0  0  0  0
   15.3532   35.7351   37.5143 H   0  0  0  0  0  0  0  0  0  0  0  0
  1  2  2  0
  1  3  1  0
  3  4  1  0
  4  5  1  0
  6  1  1  0
  7  6  1  0
  6  8  1  0
  8  9  1  0
  9 10  1  0
  9 11  2  0
 10 12  1  0
 12 13  1  0
 13 14  2  0
 15 13  1  0
 14 16  1  0
 14 17  1  0
 18 15  2  0
 16 19  1  0
 16 20  2  0
 17 21  2  0
 21 18  1  0
  4 22  2  0
  4 23  1  0
 24 23  1  0
 24 25  1  0
 25 26  1  0
 25 27  1  0
 26 28  1  0
 27 29  1  0
 27 30  1  0
 30 28  1  0
 28 31  1  0
 30 32  1  0
 33 31  1  0
 34 31  1  0
 35 33  2  0
 33 36  1  0
 37 34  2  0
 38 35  1  0
 36 39  2  0
 36 37  1  0
 40 38  2  0
 40 39  1  0
 39 41  1  0
  6 42  1  6
  7 43  1  0
  7 44  1  0
  8 45  1  0
  8 46  1  0
 12 47  1  0
 12 48  1  0
 15 49  1  0
 17 50  1  0
 18 51  1  0
 21 52  1  0
 24 53  1  0
 24 54  1  0
 25 55  1  0
 27 56  1  0
 28 57  1  0
 29 58  1  0
 30 59  1  0
 32 60  1  0
 34 61  1  0
 38 62  1  0
 41 63  1  0
 41 64  1  0
M  CHG  3   5  -1  16   1  19  -1
M  END
>  <EmbedRMS>  (265) 
0.08686653229891347

$$$$

     RDKit          3D

 64 67  0  0  0  0  0  0  0  0999 V2000
   10.2866   43.7699   33.8112 C   0  0  0  0  0  0  0  0  0  0  0  0
   11.4141   43.5782   34.3539 O   0  0  0  0  0  0  0  0  0  0  0  0
    9.3653   42.7315   33.7063 O   0  0  0  0  0  0  0  0  0  0  0  0
    9.8839   41.2329   34.2858 P   0  0  0  0  0  5  0  0  0  0  0  0
   10.3645   41.4648   35.8763 O   0  0  0  0  0  1  0  0  0  0  0  0
    9.9704   45.1073   33.2338 C   0  0  2  0  0  0  0  0  0  0  0  0
   11.0570   46.0575   33.4857 N   0  0  0  0  0  0  0  0  0  0  0  0
    8.6271   45.6610   33.7458 C   0  0  0  0  0  0  0  0  0  0  0  0
    8.6235   45.9272   35.2222 C   0  0  0  0  0  0  0  0  0  0  0  0
    8.4050   44.8724   36.1164 O   0  0  0  0  0  0  0  0  0  0  0  0
    8.8309   47.0971   35.6462 O   0  0  0  0  0  0  0  0  0  0  0  0
    8.3310   45.0540   37.5310 C   0  0  0  0  0  0  0  0  0  0  0  0
    9.6799   45.4251   38.1101 C   0  0  0  0  0  0  0  0  0  0  0  0
    9.8231   46.3988   39.1340 C   0  0  0  0  0  0  0  0  0  0  0  0
   10.8280   44.7774   37.6193 C   0  0  0  0  0  0  0  0  0  0  0  0
    8.6861   47.0127   39.7621 N   0  0  0  0  0  4  0  0  0  0  0  0
   11.1120   46.7604   39.5626 C   0  0  0  0  0  0  0  0  0  0  0  0
   12.0983   45.1357   38.0711 C   0  0  0  0  0  0  0  0  0  0  0  0
    8.7591   48.3208   40.1821 O   0  0  0  0  0  1  0  0  0  0  0  0
    7.7218   46.3136   40.1360 O   0  0  0  0  0  0  0  0  0  0  0  0
   12.2410   46.1351   39.0316 C   0  0  0  0  0  0  0  0  0  0  0  0
    8.8067   40.1901   34.2077 O   0  0  0  0  0  0  0  0  0  0  0  0
   11.2370   40.7911   33.3701 O   0  0  0  0  0  0  0  0  0  0  0  0
   10.9179   40.6907   31.9966 C   0  0  0  0  0  0  0  0  0  0  0  0
   11.5171   39.3826   31.4416 C   0  0  0  0  0  0  0  0  0  0  0  0
   12.7491   39.0895   32.0759 O   0  0  0  0  0  0  0  0  0  0  0  0
   10.6035   38.1900   31.6660 C   0  0  0  0  0  0  0  0  0  0  0  0
   12.9400   37.6836   32.0277 C   0  0  0  0  0  0  0  0  0  0  0  0
    9.6376   38.0785   30.6474 O   0  0  0  0  0  0  0  0  0  0  0  0
   11.5803   37.0205   31.6937 C   0  0  0  0  0  0  0  0  0  0  0  0
   13.4902   37.2178   33.3237 N   0  0  0  0  0  0  0  0  0  0  0  0
   11.6118   36.3194   30.4680 O   0  0  0  0  0  0  0  0  0  0  0  0
   14.4758   36.3272   33.5731 C   0  0  0  0  0  0  0  0  0  0  0  0
   13.1176   37.6318   34.5688 C   0  0  0  0  0  0  0  0  0  0  0  0
   15.2064   35.6142   32.6742 N   0  0  0  0  0  0  0  0  0  0  0  0
   14.6729   36.2274   34.9184 C   0  0  0  0  0  0  0  0  0  0  0  0
   13.8221   37.0458   35.5784 N   0  0  0  0  0  0  0  0  0  0  0  0
   16.1636   34.7597   33.1549 C   0  0  0  0  0  0  0  0  0  0  0  0
   15.6514   35.3493   35.4132 C   0  0  0  0  0  0  0  0  0  0  0  0
   16.3791   34.6312   34.5043 N   0  0  0  0  0  0  0  0  0  0  0  0
   15.9001   35.1935   36.8091 N   0  0  0  0  0  0  0  0  0  0  0  0
    9.8746   44.9755   32.1335 H   0  0  0  0  0  0  0  0  0  0  0  0
   11.2721   46.1043   34.5092 H   0  0  0  0  0  0  0  0  0  0  0  0
   11.9193   45.7343   32.9884 H   0  0  0  0  0  0  0  0  0  0  0  0
    8.3967   46.6042   33.2036 H   0  0  0  0  0  0  0  0  0  0  0  0
    7.8109   44.9451   33.5073 H   0  0  0  0  0  0  0  0  0  0  0  0
    7.9954   44.1036   37.9957 H   0  0  0  0  0  0  0  0  0  0  0  0
    7.5637   45.8282   37.7375 H   0  0  0  0  0  0  0  0  0  0  0  0
   10.7399   44.0008   36.8730 H   0  0  0  0  0  0  0  0  0  0  0  0
   11.2418   47.5102   40.3329 H   0  0  0  0  0  0  0  0  0  0  0  0
   12.9738   44.6397   37.6722 H   0  0  0  0  0  0  0  0  0  0  0  0
   13.2276   46.4141   39.3786 H   0  0  0  0  0  0  0  0  0  0  0  0
   11.3986   41.5458   31.4750 H   0  0  0  0  0  0  0  0  0  0  0  0
    9.8300   40.7397   31.7566 H   0  0  0  0  0  0  0  0  0  0  0  0
   11.6986   39.5096   30.3493 H   0  0  0  0  0  0  0  0  0  0  0  0
   10.1128   38.2587   32.6664 H   0  0  0  0  0  0  0  0  0  0  0  0
   13.6800   37.4632   31.2266 H   0  0  0  0  0  0  0  0  0  0  0  0
    8.8951   38.6907   30.8891 H   0  0  0  0  0  0  0  0  0  0  0  0
   11.2831   36.3061   32.4929 H   0  0  0  0  0  0  0  0  0  0  0  0
   11.8859   36.9591   29.7593 H   0  0  0  0  0  0  0  0  0  0  0  0
   12.3361   38.3601   34.7442 H   0  0  0  0  0  0  0  0  0  0  0  0
   16.7572   34.1793   32.4621 H   0  0  0  0  0  0  0  0  0  0  0  0
   15.3528   35.7357   37.5140 H   0  0  0  0  0  0  0  0  0  0  0  0
   16.6362   34.5318   37.1415 H   0  0  0  0  0  0  0  0  0  0  0  0
  1  2  2  0
  1  3  1  0
  3  4  1  0
  4  5  1  0
  6  1  1  0
  7  6  1  0
  6  8  1  0
  8  9  1  0
  9 10  1  0
  9 11  2  0
 10 12  1  0
 12 13  1  0
 13 14  2  0
 15 13  1  0
 14 16  1  0
 14 17  1  0
 18 15  2  0
 16 19  1  0
 16 20  2  0
 17 21  2  0
 21 18  1  0
  4 22  2  0
  4 23  1  0
 24 23  1  0
 24 25  1  0
 25 26  1  0
 25 27  1  0
 26 28  1  0
 27 29  1  0
 27 30  1  0
 30 28  1  0
 28 31  1  0
 30 32  1  0
 33 31  1  0
 34 31  1  0
 35 33  2  0
 33 36  1  0
 37 34  2  0
 38 35  1  0
 36 39  2  0
 36 37  1  0
 40 38  2  0
 40 39  1  0
 39 41  1  0
  6 42  1  6
  7 43  1  0
  7 44  1  0
  8 45  1  0
  8 46  1  0
 12 47  1  0
 12 48  1  0
 15 49  1  0
 17 50  1  0
 18 51  1  0
 21 52  1  0
 24 53  1  0
 24 54  1  0
 25 55  1  0
 27 56  1  0
 28 57  1  0
 29 58  1  0
 30 59  1  0
 32 60  1  0
 34 61  1  0
 38 62  1  0
 41 63  1  0
 41 64  1  0
M  CHG  3   5  -1  16   1  19  -1
M  END
>  <EmbedRMS>  (266) 
0.08912308530454925

$$$$

     RDKit          3D

 64 67  0  0  0  0  0  0  0  0999 V2000
   10.2840   43.7725   33.8118 C   0  0  0  0  0  0  0  0  0  0  0  0
   11.4080   43.5841   34.3636 O   0  0  0  0  0  0  0  0  0  0  0  0
    9.3737   42.7264   33.6932 O   0  0  0  0  0  0  0  0  0  0  0  0
    9.8865   41.2311   34.2827 P   0  0  0  0  0  5  0  0  0  0  0  0
   10.3642   41.4690   35.8738 O   0  0  0  0  0  1  0  0  0  0  0  0
    9.9511   45.1229   33.2622 C   0  0  2  0  0  0  0  0  0  0  0  0
   11.0715   46.0439   33.4643 N   0  0  0  0  0  0  0  0  0  0  0  0
    8.6886   45.7141   33.9215 C   0  0  0  0  0  0  0  0  0  0  0  0
    7.4434   44.9959   33.4985 C   0  0  0  0  0  0  0  0  0  0  0  0
    6.9852   43.9179   34.2595 O   0  0  0  0  0  0  0  0  0  0  0  0
    6.8523   45.3331   32.4365 O   0  0  0  0  0  0  0  0  0  0  0  0
    5.9172   43.0702   33.8461 C   0  0  0  0  0  0  0  0  0  0  0  0
    5.8518   41.8366   34.7180 C   0  0  0  0  0  0  0  0  0  0  0  0
    5.3806   40.5954   34.2143 C   0  0  0  0  0  0  0  0  0  0  0  0
    6.2710   41.9137   36.0613 C   0  0  0  0  0  0  0  0  0  0  0  0
    4.8482   40.4747   32.8838 N   0  0  0  0  0  4  0  0  0  0  0  0
    5.4252   39.4569   35.0393 C   0  0  0  0  0  0  0  0  0  0  0  0
    6.2911   40.7756   36.8683 C   0  0  0  0  0  0  0  0  0  0  0  0
    4.0024   41.4381   32.3840 O   0  0  0  0  0  1  0  0  0  0  0  0
    4.9965   39.4133   32.2434 O   0  0  0  0  0  0  0  0  0  0  0  0
    5.8805   39.5474   36.3548 C   0  0  0  0  0  0  0  0  0  0  0  0
    8.8078   40.1897   34.2068 O   0  0  0  0  0  0  0  0  0  0  0  0
   11.2379   40.7868   33.3670 O   0  0  0  0  0  0  0  0  0  0  0  0
   10.9152   40.6842   31.9939 C   0  0  0  0  0  0  0  0  0  0  0  0
   11.5167   39.3770   31.4391 C   0  0  0  0  0  0  0  0  0  0  0  0
   12.7475   39.0850   32.0733 O   0  0  0  0  0  0  0  0  0  0  0  0
   10.6045   38.1867   31.6671 C   0  0  0  0  0  0  0  0  0  0  0  0
   12.9344   37.6787   32.0281 C   0  0  0  0  0  0  0  0  0  0  0  0
    9.6374   38.0918   30.6492 O   0  0  0  0  0  0  0  0  0  0  0  0
   11.5758   37.0128   31.7057 C   0  0  0  0  0  0  0  0  0  0  0  0
   13.4908   37.2176   33.3233 N   0  0  0  0  0  0  0  0  0  0  0  0
   11.6229   36.3370   30.4684 O   0  0  0  0  0  0  0  0  0  0  0  0
   14.4764   36.3271   33.5727 C   0  0  0  0  0  0  0  0  0  0  0  0
   13.1180   37.6315   34.5685 C   0  0  0  0  0  0  0  0  0  0  0  0
   15.2066   35.6137   32.6739 N   0  0  0  0  0  0  0  0  0  0  0  0
   14.6735   36.2276   34.9182 C   0  0  0  0  0  0  0  0  0  0  0  0
   13.8226   37.0458   35.5781 N   0  0  0  0  0  0  0  0  0  0  0  0
   16.1638   34.7593   33.1548 C   0  0  0  0  0  0  0  0  0  0  0  0
   15.6516   35.3493   35.4131 C   0  0  0  0  0  0  0  0  0  0  0  0
   16.3792   34.6309   34.5043 N   0  0  0  0  0  0  0  0  0  0  0  0
   15.9002   35.1934   36.8090 N   0  0  0  0  0  0  0  0  0  0  0  0
    9.7751   45.0232   32.1680 H   0  0  0  0  0  0  0  0  0  0  0  0
   11.9132   45.6871   32.9547 H   0  0  0  0  0  0  0  0  0  0  0  0
   11.3037   46.1141   34.4829 H   0  0  0  0  0  0  0  0  0  0  0  0
    8.7811   45.6732   35.0291 H   0  0  0  0  0  0  0  0  0  0  0  0
    8.5913   46.7844   33.6356 H   0  0  0  0  0  0  0  0  0  0  0  0
    4.9562   43.6231   33.9116 H   0  0  0  0  0  0  0  0  0  0  0  0
    6.1013   42.7732   32.7912 H   0  0  0  0  0  0  0  0  0  0  0  0
    6.6019   42.8533   36.4855 H   0  0  0  0  0  0  0  0  0  0  0  0
    5.0827   38.4989   34.6689 H   0  0  0  0  0  0  0  0  0  0  0  0
    6.6311   40.8458   37.8935 H   0  0  0  0  0  0  0  0  0  0  0  0
    5.9011   38.6655   36.9820 H   0  0  0  0  0  0  0  0  0  0  0  0
    9.8252   40.7213   31.7567 H   0  0  0  0  0  0  0  0  0  0  0  0
   11.3890   41.5412   31.4691 H   0  0  0  0  0  0  0  0  0  0  0  0
   11.6983   39.5013   30.3465 H   0  0  0  0  0  0  0  0  0  0  0  0
   10.1096   38.2773   32.6632 H   0  0  0  0  0  0  0  0  0  0  0  0
   13.6670   37.4536   31.2211 H   0  0  0  0  0  0  0  0  0  0  0  0
    8.9753   37.4189   30.9556 H   0  0  0  0  0  0  0  0  0  0  0  0
   11.2857   36.3040   32.5177 H   0  0  0  0  0  0  0  0  0  0  0  0
   10.8678   35.6926   30.4654 H   0  0  0  0  0  0  0  0  0  0  0  0
   12.3353   38.3585   34.7438 H   0  0  0  0  0  0  0  0  0  0  0  0
   16.7572   34.1786   32.4621 H   0  0  0  0  0  0  0  0  0  0  0  0
   15.3530   35.7358   37.5138 H   0  0  0  0  0  0  0  0  0  0  0  0
   16.6360   34.5316   37.1416 H   0  0  0  0  0  0  0  0  0  0  0  0
  1  2  2  0
  1  3  1  0
  3  4  1  0
  4  5  1  0
  6  1  1  0
  7  6  1  0
  6  8  1  0
  8  9  1  0
  9 10  1  0
  9 11  2  0
 10 12  1  0
 12 13  1  0
 13 14  2  0
 15 13  1  0
 14 16  1  0
 14 17  1  0
 18 15  2  0
 16 19  1  0
 16 20  2  0
 17 21  2  0
 21 18  1  0
  4 22  2  0
  4 23  1  0
 24 23  1  0
 24 25  1  0
 25 26  1  0
 25 27  1  0
 26 28  1  0
 27 29  1  0
 27 30  1  0
 30 28  1  0
 28 31  1  0
 30 32  1  0
 33 31  1  0
 34 31  1  0
 35 33  2  0
 33 36  1  0
 37 34  2  0
 38 35  1  0
 36 39  2  0
 36 37  1  0
 40 38  2  0
 40 39  1  0
 39 41  1  0
  6 42  1  6
  7 43  1  0
  7 44  1  0
  8 45  1  0
  8 46  1  0
 12 47  1  0
 12 48  1  0
 15 49  1  0
 17 50  1  0
 18 51  1  0
 21 52  1  0
 24 53  1  0
 24 54  1  0
 25 55  1  0
 27 56  1  0
 28 57  1  0
 29 58  1  0
 30 59  1  0
 32 60  1  0
 34 61  1  0
 38 62  1  0
 41 63  1  0
 41 64  1  0
M  CHG  3   5  -1  16   1  19  -1
M  END
>  <EmbedRMS>  (267) 
0.09031226169846533

$$$$

     RDKit          3D

 64 67  0  0  0  0  0  0  0  0999 V2000
   10.2841   43.7729   33.8087 C   0  0  0  0  0  0  0  0  0  0  0  0
   11.4098   43.5876   34.3578 O   0  0  0  0  0  0  0  0  0  0  0  0
    9.3662   42.7313   33.7023 O   0  0  0  0  0  0  0  0  0  0  0  0
    9.8855   41.2338   34.2842 P   0  0  0  0  0  5  0  0  0  0  0  0
   10.3658   41.4687   35.8748 O   0  0  0  0  0  1  0  0  0  0  0  0
    9.9588   45.1100   33.2427 C   0  0  2  0  0  0  0  0  0  0  0  0
   11.0686   46.0364   33.4817 N   0  0  0  0  0  0  0  0  0  0  0  0
    8.6194   45.6584   33.7849 C   0  0  0  0  0  0  0  0  0  0  0  0
    8.6236   45.8512   35.2724 C   0  0  0  0  0  0  0  0  0  0  0  0
    9.0090   47.0853   35.8022 O   0  0  0  0  0  0  0  0  0  0  0  0
    8.3085   44.8947   36.0315 O   0  0  0  0  0  0  0  0  0  0  0  0
    9.0828   47.3356   37.2032 C   0  0  0  0  0  0  0  0  0  0  0  0
    9.5284   48.7549   37.4720 C   0  0  0  0  0  0  0  0  0  0  0  0
   10.2508   49.0978   38.6456 C   0  0  0  0  0  0  0  0  0  0  0  0
    9.1961   49.7708   36.5534 C   0  0  0  0  0  0  0  0  0  0  0  0
   10.5284   48.1280   39.6712 N   0  0  0  0  0  4  0  0  0  0  0  0
   10.6917   50.4226   38.8190 C   0  0  0  0  0  0  0  0  0  0  0  0
    9.6272   51.0828   36.7539 C   0  0  0  0  0  0  0  0  0  0  0  0
    9.5555   47.2402   40.0688 O   0  0  0  0  0  1  0  0  0  0  0  0
   11.5764   48.2121   40.3448 O   0  0  0  0  0  0  0  0  0  0  0  0
   10.3833   51.4059   37.8783 C   0  0  0  0  0  0  0  0  0  0  0  0
    8.8083   40.1907   34.2077 O   0  0  0  0  0  0  0  0  0  0  0  0
   11.2381   40.7907   33.3685 O   0  0  0  0  0  0  0  0  0  0  0  0
   10.9184   40.6889   31.9950 C   0  0  0  0  0  0  0  0  0  0  0  0
   11.5179   39.3802   31.4399 C   0  0  0  0  0  0  0  0  0  0  0  0
   12.7483   39.0878   32.0752 O   0  0  0  0  0  0  0  0  0  0  0  0
   10.6053   38.1876   31.6657 C   0  0  0  0  0  0  0  0  0  0  0  0
   12.9361   37.6819   32.0289 C   0  0  0  0  0  0  0  0  0  0  0  0
    9.6423   38.0738   30.6445 O   0  0  0  0  0  0  0  0  0  0  0  0
   11.5766   37.0160   31.7045 C   0  0  0  0  0  0  0  0  0  0  0  0
   13.4908   37.2183   33.3236 N   0  0  0  0  0  0  0  0  0  0  0  0
   11.6105   36.3403   30.4679 O   0  0  0  0  0  0  0  0  0  0  0  0
   14.4761   36.3273   33.5727 C   0  0  0  0  0  0  0  0  0  0  0  0
   13.1181   37.6317   34.5689 C   0  0  0  0  0  0  0  0  0  0  0  0
   15.2063   35.6141   32.6738 N   0  0  0  0  0  0  0  0  0  0  0  0
   14.6733   36.2274   34.9182 C   0  0  0  0  0  0  0  0  0  0  0  0
   13.8226   37.0456   35.5783 N   0  0  0  0  0  0  0  0  0  0  0  0
   16.1636   34.7596   33.1545 C   0  0  0  0  0  0  0  0  0  0  0  0
   15.6515   35.3492   35.4130 C   0  0  0  0  0  0  0  0  0  0  0  0
   16.3791   34.6310   34.5040 N   0  0  0  0  0  0  0  0  0  0  0  0
   15.9001   35.1932   36.8088 N   0  0  0  0  0  0  0  0  0  0  0  0
    9.8502   44.9798   32.1437 H   0  0  0  0  0  0  0  0  0  0  0  0
   10.8481   46.9498   33.0221 H   0  0  0  0  0  0  0  0  0  0  0  0
   11.1739   46.2197   34.5061 H   0  0  0  0  0  0  0  0  0  0  0  0
    8.3987   46.6322   33.2969 H   0  0  0  0  0  0  0  0  0  0  0  0
    7.7941   44.9666   33.5078 H   0  0  0  0  0  0  0  0  0  0  0  0
    9.8075   46.6165   37.6408 H   0  0  0  0  0  0  0  0  0  0  0  0
    8.0840   47.1782   37.6634 H   0  0  0  0  0  0  0  0  0  0  0  0
    8.6094   49.5493   35.6707 H   0  0  0  0  0  0  0  0  0  0  0  0
   11.2537   50.7013   39.7017 H   0  0  0  0  0  0  0  0  0  0  0  0
    9.3756   51.8506   36.0335 H   0  0  0  0  0  0  0  0  0  0  0  0
   10.7182   52.4241   38.0300 H   0  0  0  0  0  0  0  0  0  0  0  0
   11.3980   41.5441   31.4726 H   0  0  0  0  0  0  0  0  0  0  0  0
    9.8303   40.7369   31.7558 H   0  0  0  0  0  0  0  0  0  0  0  0
   11.7000   39.5047   30.3474 H   0  0  0  0  0  0  0  0  0  0  0  0
   10.1103   38.2618   32.6637 H   0  0  0  0  0  0  0  0  0  0  0  0
   13.6698   37.4593   31.2223 H   0  0  0  0  0  0  0  0  0  0  0  0
    8.8999   38.6881   30.8814 H   0  0  0  0  0  0  0  0  0  0  0  0
   11.2691   36.3068   32.5088 H   0  0  0  0  0  0  0  0  0  0  0  0
   12.1429   35.5155   30.6153 H   0  0  0  0  0  0  0  0  0  0  0  0
   12.3356   38.3589   34.7445 H   0  0  0  0  0  0  0  0  0  0  0  0
   16.7571   34.1792   32.4617 H   0  0  0  0  0  0  0  0  0  0  0  0
   16.6360   34.5314   37.1414 H   0  0  0  0  0  0  0  0  0  0  0  0
   15.3528   35.7355   37.5137 H   0  0  0  0  0  0  0  0  0  0  0  0
  1  2  2  0
  1  3  1  0
  3  4  1  0
  4  5  1  0
  6  1  1  0
  7  6  1  0
  6  8  1  0
  8  9  1  0
  9 10  1  0
  9 11  2  0
 10 12  1  0
 12 13  1  0
 13 14  2  0
 15 13  1  0
 14 16  1  0
 14 17  1  0
 18 15  2  0
 16 19  1  0
 16 20  2  0
 17 21  2  0
 21 18  1  0
  4 22  2  0
  4 23  1  0
 24 23  1  0
 24 25  1  0
 25 26  1  0
 25 27  1  0
 26 28  1  0
 27 29  1  0
 27 30  1  0
 30 28  1  0
 28 31  1  0
 30 32  1  0
 33 31  1  0
 34 31  1  0
 35 33  2  0
 33 36  1  0
 37 34  2  0
 38 35  1  0
 36 39  2  0
 36 37  1  0
 40 38  2  0
 40 39  1  0
 39 41  1  0
  6 42  1  6
  7 43  1  0
  7 44  1  0
  8 45  1  0
  8 46  1  0
 12 47  1  0
 12 48  1  0
 15 49  1  0
 17 50  1  0
 18 51  1  0
 21 52  1  0
 24 53  1  0
 24 54  1  0
 25 55  1  0
 27 56  1  0
 28 57  1  0
 29 58  1  0
 30 59  1  0
 32 60  1  0
 34 61  1  0
 38 62  1  0
 41 63  1  0
 41 64  1  0
M  CHG  3   5  -1  16   1  19  -1
M  END
>  <EmbedRMS>  (268) 
0.0892554149582768

$$$$

     RDKit          3D

 64 67  0  0  0  0  0  0  0  0999 V2000
   10.2820   43.7752   33.8090 C   0  0  0  0  0  0  0  0  0  0  0  0
   11.4050   43.5916   34.3649 O   0  0  0  0  0  0  0  0  0  0  0  0
    9.3696   42.7291   33.6970 O   0  0  0  0  0  0  0  0  0  0  0  0
    9.8867   41.2335   34.2834 P   0  0  0  0  0  5  0  0  0  0  0  0
   10.3666   41.4699   35.8740 O   0  0  0  0  0  1  0  0  0  0  0  0
    9.9471   45.1208   33.2573 C   0  0  2  0  0  0  0  0  0  0  0  0
   11.0783   46.0253   33.4698 N   0  0  0  0  0  0  0  0  0  0  0  0
    8.6905   45.6997   33.9409 C   0  0  0  0  0  0  0  0  0  0  0  0
    7.4526   44.9307   33.5910 C   0  0  0  0  0  0  0  0  0  0  0  0
    7.0113   44.9025   32.2630 O   0  0  0  0  0  0  0  0  0  0  0  0
    6.8256   44.3081   34.4914 O   0  0  0  0  0  0  0  0  0  0  0  0
    5.8645   44.1666   31.8379 C   0  0  0  0  0  0  0  0  0  0  0  0
    4.5801   44.7920   32.3412 C   0  0  0  0  0  0  0  0  0  0  0  0
    3.4374   44.0069   32.6510 C   0  0  0  0  0  0  0  0  0  0  0  0
    4.5056   46.1916   32.4824 C   0  0  0  0  0  0  0  0  0  0  0  0
    3.4072   42.5875   32.4248 N   0  0  0  0  0  4  0  0  0  0  0  0
    2.2956   44.6339   33.1794 C   0  0  0  0  0  0  0  0  0  0  0  0
    3.3549   46.7966   32.9894 C   0  0  0  0  0  0  0  0  0  0  0  0
    2.6709   41.7760   33.2571 O   0  0  0  0  0  1  0  0  0  0  0  0
    3.8631   42.1076   31.3665 O   0  0  0  0  0  0  0  0  0  0  0  0
    2.2568   46.0183   33.3491 C   0  0  0  0  0  0  0  0  0  0  0  0
    8.8084   40.1914   34.2081 O   0  0  0  0  0  0  0  0  0  0  0  0
   11.2378   40.7900   33.3669 O   0  0  0  0  0  0  0  0  0  0  0  0
   10.9141   40.6859   31.9944 C   0  0  0  0  0  0  0  0  0  0  0  0
   11.5171   39.3796   31.4406 C   0  0  0  0  0  0  0  0  0  0  0  0
   12.7489   39.0884   32.0759 O   0  0  0  0  0  0  0  0  0  0  0  0
   10.6051   38.1877   31.6658 C   0  0  0  0  0  0  0  0  0  0  0  0
   12.9412   37.6827   32.0277 C   0  0  0  0  0  0  0  0  0  0  0  0
    9.6358   38.0931   30.6503 O   0  0  0  0  0  0  0  0  0  0  0  0
   11.5826   37.0179   31.6936 C   0  0  0  0  0  0  0  0  0  0  0  0
   13.4909   37.2176   33.3239 N   0  0  0  0  0  0  0  0  0  0  0  0
   11.6139   36.3179   30.4675 O   0  0  0  0  0  0  0  0  0  0  0  0
   14.4763   36.3269   33.5733 C   0  0  0  0  0  0  0  0  0  0  0  0
   13.1179   37.6316   34.5688 C   0  0  0  0  0  0  0  0  0  0  0  0
   15.2067   35.6140   32.6744 N   0  0  0  0  0  0  0  0  0  0  0  0
   14.6731   36.2273   34.9186 C   0  0  0  0  0  0  0  0  0  0  0  0
   13.8223   37.0456   35.5785 N   0  0  0  0  0  0  0  0  0  0  0  0
   16.1639   34.7595   33.1551 C   0  0  0  0  0  0  0  0  0  0  0  0
   15.6515   35.3491   35.4134 C   0  0  0  0  0  0  0  0  0  0  0  0
   16.3793   34.6310   34.5046 N   0  0  0  0  0  0  0  0  0  0  0  0
   15.9002   35.1933   36.8093 N   0  0  0  0  0  0  0  0  0  0  0  0
    9.7620   45.0213   32.1634 H   0  0  0  0  0  0  0  0  0  0  0  0
   11.8854   45.6857   32.8962 H   0  0  0  0  0  0  0  0  0  0  0  0
   10.8347   46.9622   33.0730 H   0  0  0  0  0  0  0  0  0  0  0  0
    8.5363   46.7489   33.6092 H   0  0  0  0  0  0  0  0  0  0  0  0
    8.8331   45.7160   35.0445 H   0  0  0  0  0  0  0  0  0  0  0  0
    5.8410   44.1549   30.7284 H   0  0  0  0  0  0  0  0  0  0  0  0
    5.9731   43.1202   32.1941 H   0  0  0  0  0  0  0  0  0  0  0  0
    5.3461   46.8193   32.2137 H   0  0  0  0  0  0  0  0  0  0  0  0
    1.4197   44.0507   33.4341 H   0  0  0  0  0  0  0  0  0  0  0  0
    3.3165   47.8720   33.1070 H   0  0  0  0  0  0  0  0  0  0  0  0
    1.3668   46.4899   33.7453 H   0  0  0  0  0  0  0  0  0  0  0  0
   11.3863   41.5432   31.4687 H   0  0  0  0  0  0  0  0  0  0  0  0
    9.8240   40.7212   31.7579 H   0  0  0  0  0  0  0  0  0  0  0  0
   11.6995   39.5064   30.3484 H   0  0  0  0  0  0  0  0  0  0  0  0
   10.1122   38.2724   32.6631 H   0  0  0  0  0  0  0  0  0  0  0  0
   13.6816   37.4629   31.2268 H   0  0  0  0  0  0  0  0  0  0  0  0
    9.0033   37.3833   30.9352 H   0  0  0  0  0  0  0  0  0  0  0  0
   11.2845   36.3040   32.4928 H   0  0  0  0  0  0  0  0  0  0  0  0
   11.8848   36.9589   29.7588 H   0  0  0  0  0  0  0  0  0  0  0  0
   12.3363   38.3599   34.7440 H   0  0  0  0  0  0  0  0  0  0  0  0
   16.7574   34.1790   32.4623 H   0  0  0  0  0  0  0  0  0  0  0  0
   15.3529   35.7356   37.5141 H   0  0  0  0  0  0  0  0  0  0  0  0
   16.6363   34.5317   37.1418 H   0  0  0  0  0  0  0  0  0  0  0  0
  1  2  2  0
  1  3  1  0
  3  4  1  0
  4  5  1  0
  6  1  1  0
  7  6  1  0
  6  8  1  0
  8  9  1  0
  9 10  1  0
  9 11  2  0
 10 12  1  0
 12 13  1  0
 13 14  2  0
 15 13  1  0
 14 16  1  0
 14 17  1  0
 18 15  2  0
 16 19  1  0
 16 20  2  0
 17 21  2  0
 21 18  1  0
  4 22  2  0
  4 23  1  0
 24 23  1  0
 24 25  1  0
 25 26  1  0
 25 27  1  0
 26 28  1  0
 27 29  1  0
 27 30  1  0
 30 28  1  0
 28 31  1  0
 30 32  1  0
 33 31  1  0
 34 31  1  0
 35 33  2  0
 33 36  1  0
 37 34  2  0
 38 35  1  0
 36 39  2  0
 36 37  1  0
 40 38  2  0
 40 39  1  0
 39 41  1  0
  6 42  1  6
  7 43  1  0
  7 44  1  0
  8 45  1  0
  8 46  1  0
 12 47  1  0
 12 48  1  0
 15 49  1  0
 17 50  1  0
 18 51  1  0
 21 52  1  0
 24 53  1  0
 24 54  1  0
 25 55  1  0
 27 56  1  0
 28 57  1  0
 29 58  1  0
 30 59  1  0
 32 60  1  0
 34 61  1  0
 38 62  1  0
 41 63  1  0
 41 64  1  0
M  CHG  3   5  -1  16   1  19  -1
M  END
>  <EmbedRMS>  (269) 
0.08818538712578214

$$$$

     RDKit          3D

 64 67  0  0  0  0  0  0  0  0999 V2000
   10.2811   43.7765   33.8093 C   0  0  0  0  0  0  0  0  0  0  0  0
   11.4069   43.5932   34.3596 O   0  0  0  0  0  0  0  0  0  0  0  0
    9.3735   42.7274   33.6938 O   0  0  0  0  0  0  0  0  0  0  0  0
    9.8880   41.2327   34.2835 P   0  0  0  0  0  5  0  0  0  0  0  0
   10.3649   41.4707   35.8746 O   0  0  0  0  0  1  0  0  0  0  0  0
    9.9473   45.1201   33.2528 C   0  0  2  0  0  0  0  0  0  0  0  0
   11.0756   46.0254   33.4784 N   0  0  0  0  0  0  0  0  0  0  0  0
    8.6583   45.6996   33.8811 C   0  0  0  0  0  0  0  0  0  0  0  0
    7.4325   44.9802   33.4066 C   0  0  0  0  0  0  0  0  0  0  0  0
    6.9511   43.8934   34.1402 O   0  0  0  0  0  0  0  0  0  0  0  0
    6.8804   45.3238   32.3258 O   0  0  0  0  0  0  0  0  0  0  0  0
    5.9140   43.0361   33.6718 C   0  0  0  0  0  0  0  0  0  0  0  0
    5.8181   41.7988   34.5362 C   0  0  0  0  0  0  0  0  0  0  0  0
    5.3862   40.5525   34.0073 C   0  0  0  0  0  0  0  0  0  0  0  0
    6.1663   41.8776   35.8994 C   0  0  0  0  0  0  0  0  0  0  0  0
    4.9261   40.4214   32.6513 N   0  0  0  0  0  4  0  0  0  0  0  0
    5.4027   39.4135   34.8310 C   0  0  0  0  0  0  0  0  0  0  0  0
    6.1577   40.7380   36.7045 C   0  0  0  0  0  0  0  0  0  0  0  0
    5.1258   39.2431   31.9693 O   0  0  0  0  0  1  0  0  0  0  0  0
    4.1781   41.2865   32.1511 O   0  0  0  0  0  0  0  0  0  0  0  0
    5.7886   39.5063   36.1684 C   0  0  0  0  0  0  0  0  0  0  0  0
    8.8099   40.1905   34.2070 O   0  0  0  0  0  0  0  0  0  0  0  0
   11.2400   40.7880   33.3692 O   0  0  0  0  0  0  0  0  0  0  0  0
   10.9201   40.6888   31.9954 C   0  0  0  0  0  0  0  0  0  0  0  0
   11.5171   39.3798   31.4396 C   0  0  0  0  0  0  0  0  0  0  0  0
   12.7480   39.0858   32.0727 O   0  0  0  0  0  0  0  0  0  0  0  0
   10.6029   38.1891   31.6670 C   0  0  0  0  0  0  0  0  0  0  0  0
   12.9334   37.6793   32.0278 C   0  0  0  0  0  0  0  0  0  0  0  0
    9.6390   38.0780   30.6464 O   0  0  0  0  0  0  0  0  0  0  0  0
   11.5736   37.0153   31.7058 C   0  0  0  0  0  0  0  0  0  0  0  0
   13.4902   37.2177   33.3230 N   0  0  0  0  0  0  0  0  0  0  0  0
   11.6206   36.3377   30.4694 O   0  0  0  0  0  0  0  0  0  0  0  0
   14.4761   36.3273   33.5725 C   0  0  0  0  0  0  0  0  0  0  0  0
   13.1177   37.6316   34.5683 C   0  0  0  0  0  0  0  0  0  0  0  0
   15.2063   35.6139   32.6737 N   0  0  0  0  0  0  0  0  0  0  0  0
   14.6733   36.2278   34.9179 C   0  0  0  0  0  0  0  0  0  0  0  0
   13.8225   37.0459   35.5779 N   0  0  0  0  0  0  0  0  0  0  0  0
   16.1636   34.7594   33.1546 C   0  0  0  0  0  0  0  0  0  0  0  0
   15.6515   35.3494   35.4129 C   0  0  0  0  0  0  0  0  0  0  0  0
   16.3791   34.6311   34.5041 N   0  0  0  0  0  0  0  0  0  0  0  0
   15.9001   35.1936   36.8088 N   0  0  0  0  0  0  0  0  0  0  0  0
    9.8031   45.0087   32.1547 H   0  0  0  0  0  0  0  0  0  0  0  0
   10.9091   46.9075   32.9411 H   0  0  0  0  0  0  0  0  0  0  0  0
   11.1215   46.2839   34.4920 H   0  0  0  0  0  0  0  0  0  0  0  0
    8.5610   46.7730   33.6078 H   0  0  0  0  0  0  0  0  0  0  0  0
    8.7142   45.6432   34.9904 H   0  0  0  0  0  0  0  0  0  0  0  0
    4.9448   43.5783   33.6901 H   0  0  0  0  0  0  0  0  0  0  0  0
    6.1545   42.7453   32.6267 H   0  0  0  0  0  0  0  0  0  0  0  0
    6.4641   42.8199   36.3418 H   0  0  0  0  0  0  0  0  0  0  0  0
    5.0912   38.4524   34.4420 H   0  0  0  0  0  0  0  0  0  0  0  0
    6.4435   40.8097   37.7460 H   0  0  0  0  0  0  0  0  0  0  0  0
    5.7873   38.6232   36.7943 H   0  0  0  0  0  0  0  0  0  0  0  0
   11.4018   41.5433   31.4739 H   0  0  0  0  0  0  0  0  0  0  0  0
    9.8320   40.7392   31.7556 H   0  0  0  0  0  0  0  0  0  0  0  0
   11.6977   39.5042   30.3468 H   0  0  0  0  0  0  0  0  0  0  0  0
   10.1092   38.2633   32.6656 H   0  0  0  0  0  0  0  0  0  0  0  0
   13.6653   37.4533   31.2206 H   0  0  0  0  0  0  0  0  0  0  0  0
    8.8938   38.6869   30.8888 H   0  0  0  0  0  0  0  0  0  0  0  0
   11.2843   36.3058   32.5175 H   0  0  0  0  0  0  0  0  0  0  0  0
   10.8515   35.7099   30.4587 H   0  0  0  0  0  0  0  0  0  0  0  0
   12.3351   38.3587   34.7438 H   0  0  0  0  0  0  0  0  0  0  0  0
   16.7570   34.1788   32.4619 H   0  0  0  0  0  0  0  0  0  0  0  0
   15.3528   35.7359   37.5136 H   0  0  0  0  0  0  0  0  0  0  0  0
   16.6359   34.5317   37.1414 H   0  0  0  0  0  0  0  0  0  0  0  0
  1  2  2  0
  1  3  1  0
  3  4  1  0
  4  5  1  0
  6  1  1  0
  7  6  1  0
  6  8  1  0
  8  9  1  0
  9 10  1  0
  9 11  2  0
 10 12  1  0
 12 13  1  0
 13 14  2  0
 15 13  1  0
 14 16  1  0
 14 17  1  0
 18 15  2  0
 16 19  1  0
 16 20  2  0
 17 21  2  0
 21 18  1  0
  4 22  2  0
  4 23  1  0
 24 23  1  0
 24 25  1  0
 25 26  1  0
 25 27  1  0
 26 28  1  0
 27 29  1  0
 27 30  1  0
 30 28  1  0
 28 31  1  0
 30 32  1  0
 33 31  1  0
 34 31  1  0
 35 33  2  0
 33 36  1  0
 37 34  2  0
 38 35  1  0
 36 39  2  0
 36 37  1  0
 40 38  2  0
 40 39  1  0
 39 41  1  0
  6 42  1  6
  7 43  1  0
  7 44  1  0
  8 45  1  0
  8 46  1  0
 12 47  1  0
 12 48  1  0
 15 49  1  0
 17 50  1  0
 18 51  1  0
 21 52  1  0
 24 53  1  0
 24 54  1  0
 25 55  1  0
 27 56  1  0
 28 57  1  0
 29 58  1  0
 30 59  1  0
 32 60  1  0
 34 61  1  0
 38 62  1  0
 41 63  1  0
 41 64  1  0
M  CHG  3   5  -1  16   1  19  -1
M  END
>  <EmbedRMS>  (270) 
0.08985955301928504

$$$$

     RDKit          3D

 64 67  0  0  0  0  0  0  0  0999 V2000
   10.2858   43.7714   33.8033 C   0  0  0  0  0  0  0  0  0  0  0  0
   11.4107   43.5867   34.3549 O   0  0  0  0  0  0  0  0  0  0  0  0
    9.3669   42.7307   33.6992 O   0  0  0  0  0  0  0  0  0  0  0  0
    9.8856   41.2343   34.2842 P   0  0  0  0  0  5  0  0  0  0  0  0
   10.3655   41.4707   35.8746 O   0  0  0  0  0  1  0  0  0  0  0  0
    9.9548   45.1134   33.2492 C   0  0  2  0  0  0  0  0  0  0  0  0
   11.0692   46.0340   33.4844 N   0  0  0  0  0  0  0  0  0  0  0  0
    8.6237   45.6638   33.8149 C   0  0  0  0  0  0  0  0  0  0  0  0
    8.5857   45.6658   35.3146 C   0  0  0  0  0  0  0  0  0  0  0  0
    9.1146   46.7518   36.0199 O   0  0  0  0  0  0  0  0  0  0  0  0
    8.1142   44.6691   35.9270 O   0  0  0  0  0  0  0  0  0  0  0  0
    9.4480   46.6920   37.4052 C   0  0  0  0  0  0  0  0  0  0  0  0
   10.7184   45.8983   37.5954 C   0  0  0  0  0  0  0  0  0  0  0  0
   12.0061   46.4729   37.4182 C   0  0  0  0  0  0  0  0  0  0  0  0
   10.6146   44.5372   37.9367 C   0  0  0  0  0  0  0  0  0  0  0  0
   12.1813   47.8542   37.0503 N   0  0  0  0  0  4  0  0  0  0  0  0
   13.1453   45.6712   37.6194 C   0  0  0  0  0  0  0  0  0  0  0  0
   11.7573   43.7576   38.1156 C   0  0  0  0  0  0  0  0  0  0  0  0
   11.3546   48.4481   36.1254 O   0  0  0  0  0  1  0  0  0  0  0  0
   13.1861   48.4822   37.4437 O   0  0  0  0  0  0  0  0  0  0  0  0
   13.0202   44.3240   37.9602 C   0  0  0  0  0  0  0  0  0  0  0  0
    8.8082   40.1912   34.2085 O   0  0  0  0  0  0  0  0  0  0  0  0
   11.2381   40.7901   33.3689 O   0  0  0  0  0  0  0  0  0  0  0  0
   10.9187   40.6888   31.9952 C   0  0  0  0  0  0  0  0  0  0  0  0
   11.5180   39.3801   31.4400 C   0  0  0  0  0  0  0  0  0  0  0  0
   12.7484   39.0876   32.0751 O   0  0  0  0  0  0  0  0  0  0  0  0
   10.6053   38.1875   31.6657 C   0  0  0  0  0  0  0  0  0  0  0  0
   12.9361   37.6817   32.0289 C   0  0  0  0  0  0  0  0  0  0  0  0
    9.6423   38.0738   30.6446 O   0  0  0  0  0  0  0  0  0  0  0  0
   11.5765   37.0159   31.7047 C   0  0  0  0  0  0  0  0  0  0  0  0
   13.4908   37.2183   33.3237 N   0  0  0  0  0  0  0  0  0  0  0  0
   11.6102   36.3400   30.4680 O   0  0  0  0  0  0  0  0  0  0  0  0
   14.4762   36.3274   33.5728 C   0  0  0  0  0  0  0  0  0  0  0  0
   13.1181   37.6319   34.5689 C   0  0  0  0  0  0  0  0  0  0  0  0
   15.2063   35.6141   32.6739 N   0  0  0  0  0  0  0  0  0  0  0  0
   14.6733   36.2275   34.9182 C   0  0  0  0  0  0  0  0  0  0  0  0
   13.8226   37.0458   35.5784 N   0  0  0  0  0  0  0  0  0  0  0  0
   16.1635   34.7595   33.1546 C   0  0  0  0  0  0  0  0  0  0  0  0
   15.6515   35.3492   35.4130 C   0  0  0  0  0  0  0  0  0  0  0  0
   16.3791   34.6310   34.5041 N   0  0  0  0  0  0  0  0  0  0  0  0
   15.9002   35.1934   36.8089 N   0  0  0  0  0  0  0  0  0  0  0  0
    9.8339   44.9948   32.1502 H   0  0  0  0  0  0  0  0  0  0  0  0
   11.1766   46.2121   34.5084 H   0  0  0  0  0  0  0  0  0  0  0  0
   10.8520   46.9499   33.0284 H   0  0  0  0  0  0  0  0  0  0  0  0
    8.4598   46.6987   33.4453 H   0  0  0  0  0  0  0  0  0  0  0  0
    7.7815   45.0469   33.4314 H   0  0  0  0  0  0  0  0  0  0  0  0
    8.6055   46.2510   37.9823 H   0  0  0  0  0  0  0  0  0  0  0  0
    9.5812   47.7221   37.7956 H   0  0  0  0  0  0  0  0  0  0  0  0
    9.6442   44.0760   38.0708 H   0  0  0  0  0  0  0  0  0  0  0  0
   14.1367   46.0875   37.4928 H   0  0  0  0  0  0  0  0  0  0  0  0
   11.6628   42.7118   38.3783 H   0  0  0  0  0  0  0  0  0  0  0  0
   13.9054   43.7173   38.1013 H   0  0  0  0  0  0  0  0  0  0  0  0
    9.8307   40.7374   31.7556 H   0  0  0  0  0  0  0  0  0  0  0  0
   11.3990   41.5437   31.4729 H   0  0  0  0  0  0  0  0  0  0  0  0
   11.7001   39.5048   30.3475 H   0  0  0  0  0  0  0  0  0  0  0  0
   10.1103   38.2618   32.6637 H   0  0  0  0  0  0  0  0  0  0  0  0
   13.6696   37.4587   31.2223 H   0  0  0  0  0  0  0  0  0  0  0  0
    8.9001   38.6883   30.8814 H   0  0  0  0  0  0  0  0  0  0  0  0
   11.2690   36.3069   32.5091 H   0  0  0  0  0  0  0  0  0  0  0  0
   12.1427   35.5152   30.6153 H   0  0  0  0  0  0  0  0  0  0  0  0
   12.3360   38.3595   34.7446 H   0  0  0  0  0  0  0  0  0  0  0  0
   16.7569   34.1789   32.4618 H   0  0  0  0  0  0  0  0  0  0  0  0
   16.6362   34.5315   37.1414 H   0  0  0  0  0  0  0  0  0  0  0  0
   15.3531   35.7357   37.5138 H   0  0  0  0  0  0  0  0  0  0  0  0
  1  2  2  0
  1  3  1  0
  3  4  1  0
  4  5  1  0
  6  1  1  0
  7  6  1  0
  6  8  1  0
  8  9  1  0
  9 10  1  0
  9 11  2  0
 10 12  1  0
 12 13  1  0
 13 14  2  0
 15 13  1  0
 14 16  1  0
 14 17  1  0
 18 15  2  0
 16 19  1  0
 16 20  2  0
 17 21  2  0
 21 18  1  0
  4 22  2  0
  4 23  1  0
 24 23  1  0
 24 25  1  0
 25 26  1  0
 25 27  1  0
 26 28  1  0
 27 29  1  0
 27 30  1  0
 30 28  1  0
 28 31  1  0
 30 32  1  0
 33 31  1  0
 34 31  1  0
 35 33  2  0
 33 36  1  0
 37 34  2  0
 38 35  1  0
 36 39  2  0
 36 37  1  0
 40 38  2  0
 40 39  1  0
 39 41  1  0
  6 42  1  6
  7 43  1  0
  7 44  1  0
  8 45  1  0
  8 46  1  0
 12 47  1  0
 12 48  1  0
 15 49  1  0
 17 50  1  0
 18 51  1  0
 21 52  1  0
 24 53  1  0
 24 54  1  0
 25 55  1  0
 27 56  1  0
 28 57  1  0
 29 58  1  0
 30 59  1  0
 32 60  1  0
 34 61  1  0
 38 62  1  0
 41 63  1  0
 41 64  1  0
M  CHG  3   5  -1  16   1  19  -1
M  END
>  <EmbedRMS>  (271) 
0.08911625628885567

$$$$

     RDKit          3D

 64 67  0  0  0  0  0  0  0  0999 V2000
   10.2856   43.7741   33.8040 C   0  0  0  0  0  0  0  0  0  0  0  0
   11.4080   43.5909   34.3609 O   0  0  0  0  0  0  0  0  0  0  0  0
    9.3689   42.7309   33.6976 O   0  0  0  0  0  0  0  0  0  0  0  0
    9.8866   41.2347   34.2837 P   0  0  0  0  0  5  0  0  0  0  0  0
   10.3671   41.4712   35.8740 O   0  0  0  0  0  1  0  0  0  0  0  0
    9.9507   45.1148   33.2486 C   0  0  2  0  0  0  0  0  0  0  0  0
   11.0695   46.0314   33.4846 N   0  0  0  0  0  0  0  0  0  0  0  0
    8.6644   45.6403   33.9172 C   0  0  0  0  0  0  0  0  0  0  0  0
    8.1714   46.9015   33.2751 C   0  0  0  0  0  0  0  0  0  0  0  0
    7.8255   46.8987   31.9212 O   0  0  0  0  0  0  0  0  0  0  0  0
    8.0658   47.9535   33.9628 O   0  0  0  0  0  0  0  0  0  0  0  0
    7.2965   48.0430   31.2592 C   0  0  0  0  0  0  0  0  0  0  0  0
    7.2368   47.7836   29.7767 C   0  0  0  0  0  0  0  0  0  0  0  0
    8.3295   48.0720   28.9166 C   0  0  0  0  0  0  0  0  0  0  0  0
    6.0593   47.2382   29.2334 C   0  0  0  0  0  0  0  0  0  0  0  0
    9.5830   48.5596   29.4224 N   0  0  0  0  0  4  0  0  0  0  0  0
    8.1850   47.8684   27.5322 C   0  0  0  0  0  0  0  0  0  0  0  0
    5.9454   47.0185   27.8578 C   0  0  0  0  0  0  0  0  0  0  0  0
   10.1305   48.0299   30.5685 O   0  0  0  0  0  1  0  0  0  0  0  0
   10.2592   49.3658   28.7496 O   0  0  0  0  0  0  0  0  0  0  0  0
    7.0022   47.3433   27.0081 C   0  0  0  0  0  0  0  0  0  0  0  0
    8.8087   40.1921   34.2094 O   0  0  0  0  0  0  0  0  0  0  0  0
   11.2380   40.7896   33.3680 O   0  0  0  0  0  0  0  0  0  0  0  0
   10.9164   40.6888   31.9950 C   0  0  0  0  0  0  0  0  0  0  0  0
   11.5254   39.3871   31.4360 C   0  0  0  0  0  0  0  0  0  0  0  0
   12.7487   39.0872   32.0801 O   0  0  0  0  0  0  0  0  0  0  0  0
   10.6101   38.1908   31.6464 C   0  0  0  0  0  0  0  0  0  0  0  0
   12.9343   37.6799   32.0293 C   0  0  0  0  0  0  0  0  0  0  0  0
    9.6121   38.0875   30.6546 O   0  0  0  0  0  0  0  0  0  0  0  0
   11.5762   37.0128   31.7023 C   0  0  0  0  0  0  0  0  0  0  0  0
   13.4896   37.2156   33.3237 N   0  0  0  0  0  0  0  0  0  0  0  0
   11.6322   36.3226   30.4738 O   0  0  0  0  0  0  0  0  0  0  0  0
   14.4762   36.3261   33.5728 C   0  0  0  0  0  0  0  0  0  0  0  0
   13.1180   37.6304   34.5689 C   0  0  0  0  0  0  0  0  0  0  0  0
   15.2061   35.6128   32.6740 N   0  0  0  0  0  0  0  0  0  0  0  0
   14.6739   36.2273   34.9183 C   0  0  0  0  0  0  0  0  0  0  0  0
   13.8234   37.0457   35.5784 N   0  0  0  0  0  0  0  0  0  0  0  0
   16.1636   34.7586   33.1548 C   0  0  0  0  0  0  0  0  0  0  0  0
   15.6522   35.3492   35.4133 C   0  0  0  0  0  0  0  0  0  0  0  0
   16.3793   34.6306   34.5043 N   0  0  0  0  0  0  0  0  0  0  0  0
   15.9013   35.1933   36.8092 N   0  0  0  0  0  0  0  0  0  0  0  0
    9.7822   45.0028   32.1534 H   0  0  0  0  0  0  0  0  0  0  0  0
   10.8293   46.9697   33.0917 H   0  0  0  0  0  0  0  0  0  0  0  0
   11.8899   45.7023   32.9241 H   0  0  0  0  0  0  0  0  0  0  0  0
    8.8490   45.8124   35.0012 H   0  0  0  0  0  0  0  0  0  0  0  0
    7.8552   44.8835   33.8277 H   0  0  0  0  0  0  0  0  0  0  0  0
    6.2807   48.2587   31.6576 H   0  0  0  0  0  0  0  0  0  0  0  0
    7.9215   48.9378   31.4673 H   0  0  0  0  0  0  0  0  0  0  0  0
    5.2225   46.9889   29.8754 H   0  0  0  0  0  0  0  0  0  0  0  0
    9.0019   48.0935   26.8573 H   0  0  0  0  0  0  0  0  0  0  0  0
    5.0333   46.6008   27.4483 H   0  0  0  0  0  0  0  0  0  0  0  0
    6.9102   47.1794   25.9407 H   0  0  0  0  0  0  0  0  0  0  0  0
    9.8262   40.7211   31.7579 H   0  0  0  0  0  0  0  0  0  0  0  0
   11.3855   41.5501   31.4730 H   0  0  0  0  0  0  0  0  0  0  0  0
   11.7281   39.5298   30.3498 H   0  0  0  0  0  0  0  0  0  0  0  0
   10.1127   38.2738   32.6383 H   0  0  0  0  0  0  0  0  0  0  0  0
   13.6677   37.4575   31.2224 H   0  0  0  0  0  0  0  0  0  0  0  0
   10.0504   38.1093   29.7645 H   0  0  0  0  0  0  0  0  0  0  0  0
   11.2792   36.3126   32.5192 H   0  0  0  0  0  0  0  0  0  0  0  0
   10.8630   35.6951   30.4634 H   0  0  0  0  0  0  0  0  0  0  0  0
   12.3355   38.3575   34.7446 H   0  0  0  0  0  0  0  0  0  0  0  0
   16.7562   34.1772   32.4621 H   0  0  0  0  0  0  0  0  0  0  0  0
   15.3549   35.7351   37.5153 H   0  0  0  0  0  0  0  0  0  0  0  0
   16.6376   34.5314   37.1404 H   0  0  0  0  0  0  0  0  0  0  0  0
  1  2  2  0
  1  3  1  0
  3  4  1  0
  4  5  1  0
  6  1  1  0
  7  6  1  0
  6  8  1  0
  8  9  1  0
  9 10  1  0
  9 11  2  0
 10 12  1  0
 12 13  1  0
 13 14  2  0
 15 13  1  0
 14 16  1  0
 14 17  1  0
 18 15  2  0
 16 19  1  0
 16 20  2  0
 17 21  2  0
 21 18  1  0
  4 22  2  0
  4 23  1  0
 24 23  1  0
 24 25  1  0
 25 26  1  0
 25 27  1  0
 26 28  1  0
 27 29  1  0
 27 30  1  0
 30 28  1  0
 28 31  1  0
 30 32  1  0
 33 31  1  0
 34 31  1  0
 35 33  2  0
 33 36  1  0
 37 34  2  0
 38 35  1  0
 36 39  2  0
 36 37  1  0
 40 38  2  0
 40 39  1  0
 39 41  1  0
  6 42  1  6
  7 43  1  0
  7 44  1  0
  8 45  1  0
  8 46  1  0
 12 47  1  0
 12 48  1  0
 15 49  1  0
 17 50  1  0
 18 51  1  0
 21 52  1  0
 24 53  1  0
 24 54  1  0
 25 55  1  0
 27 56  1  0
 28 57  1  0
 29 58  1  0
 30 59  1  0
 32 60  1  0
 34 61  1  0
 38 62  1  0
 41 63  1  0
 41 64  1  0
M  CHG  3   5  -1  16   1  19  -1
M  END
>  <EmbedRMS>  (272) 
0.08803171286823515

$$$$

     RDKit          3D

 64 67  0  0  0  0  0  0  0  0999 V2000
   10.2863   43.7710   33.8099 C   0  0  0  0  0  0  0  0  0  0  0  0
   11.4100   43.5817   34.3616 O   0  0  0  0  0  0  0  0  0  0  0  0
    9.3668   42.7309   33.7018 O   0  0  0  0  0  0  0  0  0  0  0  0
    9.8848   41.2328   34.2833 P   0  0  0  0  0  5  0  0  0  0  0  0
   10.3663   41.4673   35.8737 O   0  0  0  0  0  1  0  0  0  0  0  0
    9.9608   45.1124   33.2472 C   0  0  2  0  0  0  0  0  0  0  0  0
   11.0653   46.0481   33.4749 N   0  0  0  0  0  0  0  0  0  0  0  0
    8.6652   45.6569   33.8711 C   0  0  0  0  0  0  0  0  0  0  0  0
    8.2721   46.9587   33.2452 C   0  0  0  0  0  0  0  0  0  0  0  0
    7.6270   46.9557   32.0037 O   0  0  0  0  0  0  0  0  0  0  0  0
    8.5543   48.0426   33.8243 O   0  0  0  0  0  0  0  0  0  0  0  0
    7.2177   48.1428   31.3260 C   0  0  0  0  0  0  0  0  0  0  0  0
    6.0700   48.8082   32.0520 C   0  0  0  0  0  0  0  0  0  0  0  0
    6.0674   50.1878   32.3904 C   0  0  0  0  0  0  0  0  0  0  0  0
    4.9214   48.0385   32.3121 C   0  0  0  0  0  0  0  0  0  0  0  0
    7.2057   51.0308   32.1598 N   0  0  0  0  0  4  0  0  0  0  0  0
    4.9157   50.7532   32.9632 C   0  0  0  0  0  0  0  0  0  0  0  0
    3.7942   48.6142   32.8998 C   0  0  0  0  0  0  0  0  0  0  0  0
    7.0188   52.3103   31.6900 O   0  0  0  0  0  1  0  0  0  0  0  0
    8.3197   50.7193   32.6279 O   0  0  0  0  0  0  0  0  0  0  0  0
    3.7899   49.9701   33.2213 C   0  0  0  0  0  0  0  0  0  0  0  0
    8.8069   40.1904   34.2077 O   0  0  0  0  0  0  0  0  0  0  0  0
   11.2364   40.7902   33.3658 O   0  0  0  0  0  0  0  0  0  0  0  0
   10.9133   40.6842   31.9930 C   0  0  0  0  0  0  0  0  0  0  0  0
   11.5174   39.3773   31.4394 C   0  0  0  0  0  0  0  0  0  0  0  0
   12.7476   39.0869   32.0756 O   0  0  0  0  0  0  0  0  0  0  0  0
   10.6069   38.1851   31.6656 C   0  0  0  0  0  0  0  0  0  0  0  0
   12.9372   37.6811   32.0290 C   0  0  0  0  0  0  0  0  0  0  0  0
    9.6403   38.0882   30.6475 O   0  0  0  0  0  0  0  0  0  0  0  0
   11.5789   37.0134   31.7045 C   0  0  0  0  0  0  0  0  0  0  0  0
   13.4915   37.2182   33.3239 N   0  0  0  0  0  0  0  0  0  0  0  0
   11.6125   36.3388   30.4673 O   0  0  0  0  0  0  0  0  0  0  0  0
   14.4766   36.3272   33.5730 C   0  0  0  0  0  0  0  0  0  0  0  0
   13.1184   37.6317   34.5690 C   0  0  0  0  0  0  0  0  0  0  0  0
   15.2066   35.6139   32.6740 N   0  0  0  0  0  0  0  0  0  0  0  0
   14.6735   36.2274   34.9184 C   0  0  0  0  0  0  0  0  0  0  0  0
   13.8227   37.0455   35.5785 N   0  0  0  0  0  0  0  0  0  0  0  0
   16.1638   34.7593   33.1548 C   0  0  0  0  0  0  0  0  0  0  0  0
   15.6517   35.3491   35.4132 C   0  0  0  0  0  0  0  0  0  0  0  0
   16.3792   34.6308   34.5043 N   0  0  0  0  0  0  0  0  0  0  0  0
   15.9004   35.1932   36.8090 N   0  0  0  0  0  0  0  0  0  0  0  0
    9.8103   44.9950   32.1509 H   0  0  0  0  0  0  0  0  0  0  0  0
   11.9219   45.7024   32.9828 H   0  0  0  0  0  0  0  0  0  0  0  0
   11.2750   46.1184   34.4983 H   0  0  0  0  0  0  0  0  0  0  0  0
    8.7948   45.7900   34.9681 H   0  0  0  0  0  0  0  0  0  0  0  0
    7.8364   44.9328   33.7134 H   0  0  0  0  0  0  0  0  0  0  0  0
    6.8662   47.8602   30.3114 H   0  0  0  0  0  0  0  0  0  0  0  0
    8.0924   48.8047   31.1783 H   0  0  0  0  0  0  0  0  0  0  0  0
    4.8953   46.9884   32.0468 H   0  0  0  0  0  0  0  0  0  0  0  0
    4.8971   51.8035   33.2259 H   0  0  0  0  0  0  0  0  0  0  0  0
    2.9181   48.0095   33.0958 H   0  0  0  0  0  0  0  0  0  0  0  0
    2.9122   50.4161   33.6712 H   0  0  0  0  0  0  0  0  0  0  0  0
   11.3848   41.5414   31.4666 H   0  0  0  0  0  0  0  0  0  0  0  0
    9.8231   40.7187   31.7568 H   0  0  0  0  0  0  0  0  0  0  0  0
   11.7006   39.5017   30.3470 H   0  0  0  0  0  0  0  0  0  0  0  0
   10.1097   38.2750   32.6605 H   0  0  0  0  0  0  0  0  0  0  0  0
   13.6713   37.4592   31.2227 H   0  0  0  0  0  0  0  0  0  0  0  0
    9.0033   37.3834   30.9350 H   0  0  0  0  0  0  0  0  0  0  0  0
   11.2706   36.3048   32.5088 H   0  0  0  0  0  0  0  0  0  0  0  0
   12.1444   35.5136   30.6141 H   0  0  0  0  0  0  0  0  0  0  0  0
   12.3361   38.3592   34.7445 H   0  0  0  0  0  0  0  0  0  0  0  0
   16.7571   34.1787   32.4620 H   0  0  0  0  0  0  0  0  0  0  0  0
   15.3532   35.7355   37.5139 H   0  0  0  0  0  0  0  0  0  0  0  0
   16.6363   34.5314   37.1415 H   0  0  0  0  0  0  0  0  0  0  0  0
  1  2  2  0
  1  3  1  0
  3  4  1  0
  4  5  1  0
  6  1  1  0
  7  6  1  0
  6  8  1  0
  8  9  1  0
  9 10  1  0
  9 11  2  0
 10 12  1  0
 12 13  1  0
 13 14  2  0
 15 13  1  0
 14 16  1  0
 14 17  1  0
 18 15  2  0
 16 19  1  0
 16 20  2  0
 17 21  2  0
 21 18  1  0
  4 22  2  0
  4 23  1  0
 24 23  1  0
 24 25  1  0
 25 26  1  0
 25 27  1  0
 26 28  1  0
 27 29  1  0
 27 30  1  0
 30 28  1  0
 28 31  1  0
 30 32  1  0
 33 31  1  0
 34 31  1  0
 35 33  2  0
 33 36  1  0
 37 34  2  0
 38 35  1  0
 36 39  2  0
 36 37  1  0
 40 38  2  0
 40 39  1  0
 39 41  1  0
  6 42  1  6
  7 43  1  0
  7 44  1  0
  8 45  1  0
  8 46  1  0
 12 47  1  0
 12 48  1  0
 15 49  1  0
 17 50  1  0
 18 51  1  0
 21 52  1  0
 24 53  1  0
 24 54  1  0
 25 55  1  0
 27 56  1  0
 28 57  1  0
 29 58  1  0
 30 59  1  0
 32 60  1  0
 34 61  1  0
 38 62  1  0
 41 63  1  0
 41 64  1  0
M  CHG  3   5  -1  16   1  19  -1
M  END
>  <EmbedRMS>  (273) 
0.08934391224718086

$$$$

     RDKit          3D

 64 67  0  0  0  0  0  0  0  0999 V2000
   10.2804   43.7730   33.8146 C   0  0  0  0  0  0  0  0  0  0  0  0
   11.4047   43.5823   34.3649 O   0  0  0  0  0  0  0  0  0  0  0  0
    9.3644   42.7303   33.7025 O   0  0  0  0  0  0  0  0  0  0  0  0
    9.8843   41.2327   34.2844 P   0  0  0  0  0  5  0  0  0  0  0  0
   10.3638   41.4671   35.8754 O   0  0  0  0  0  1  0  0  0  0  0  0
    9.9575   45.1201   33.2540 C   0  0  2  0  0  0  0  0  0  0  0  0
   11.0779   46.0399   33.4616 N   0  0  0  0  0  0  0  0  0  0  0  0
    8.6938   45.7217   33.8984 C   0  0  0  0  0  0  0  0  0  0  0  0
    7.4340   44.9949   33.5312 C   0  0  0  0  0  0  0  0  0  0  0  0
    6.5098   44.6890   34.5334 O   0  0  0  0  0  0  0  0  0  0  0  0
    7.1859   44.7229   32.3241 O   0  0  0  0  0  0  0  0  0  0  0  0
    5.2496   44.0824   34.2639 C   0  0  0  0  0  0  0  0  0  0  0  0
    4.4755   43.9320   35.5503 C   0  0  0  0  0  0  0  0  0  0  0  0
    5.0034   43.2361   36.6708 C   0  0  0  0  0  0  0  0  0  0  0  0
    3.2134   44.5462   35.6567 C   0  0  0  0  0  0  0  0  0  0  0  0
    6.2802   42.5749   36.6188 N   0  0  0  0  0  4  0  0  0  0  0  0
    4.2637   43.2013   37.8670 C   0  0  0  0  0  0  0  0  0  0  0  0
    2.4896   44.4863   36.8482 C   0  0  0  0  0  0  0  0  0  0  0  0
    6.6446   41.8449   35.5121 O   0  0  0  0  0  1  0  0  0  0  0  0
    6.9958   42.5144   37.6403 O   0  0  0  0  0  0  0  0  0  0  0  0
    3.0156   43.8193   37.9526 C   0  0  0  0  0  0  0  0  0  0  0  0
    8.8095   40.1874   34.2065 O   0  0  0  0  0  0  0  0  0  0  0  0
   11.2369   40.7915   33.3688 O   0  0  0  0  0  0  0  0  0  0  0  0
   10.9151   40.6899   31.9959 C   0  0  0  0  0  0  0  0  0  0  0  0
   11.5268   39.3900   31.4374 C   0  0  0  0  0  0  0  0  0  0  0  0
   12.7505   39.0919   32.0839 O   0  0  0  0  0  0  0  0  0  0  0  0
   10.6121   38.1916   31.6451 C   0  0  0  0  0  0  0  0  0  0  0  0
   12.9428   37.6856   32.0292 C   0  0  0  0  0  0  0  0  0  0  0  0
    9.6071   38.0856   30.6600 O   0  0  0  0  0  0  0  0  0  0  0  0
   11.5846   37.0188   31.6875 C   0  0  0  0  0  0  0  0  0  0  0  0
   13.4896   37.2167   33.3246 N   0  0  0  0  0  0  0  0  0  0  0  0
   11.6206   36.3068   30.4687 O   0  0  0  0  0  0  0  0  0  0  0  0
   14.4756   36.3268   33.5738 C   0  0  0  0  0  0  0  0  0  0  0  0
   13.1169   37.6316   34.5691 C   0  0  0  0  0  0  0  0  0  0  0  0
   15.2067   35.6142   32.6750 N   0  0  0  0  0  0  0  0  0  0  0  0
   14.6722   36.2275   34.9190 C   0  0  0  0  0  0  0  0  0  0  0  0
   13.8213   37.0462   35.5785 N   0  0  0  0  0  0  0  0  0  0  0  0
   16.1641   34.7602   33.1561 C   0  0  0  0  0  0  0  0  0  0  0  0
   15.6515   35.3493   35.4146 C   0  0  0  0  0  0  0  0  0  0  0  0
   16.3790   34.6318   34.5058 N   0  0  0  0  0  0  0  0  0  0  0  0
   15.9061   35.1873   36.8089 N   0  0  0  0  0  0  0  0  0  0  0  0
    9.7945   45.0146   32.1590 H   0  0  0  0  0  0  0  0  0  0  0  0
   11.3051   46.1120   34.4811 H   0  0  0  0  0  0  0  0  0  0  0  0
   11.9222   45.6816   32.9570 H   0  0  0  0  0  0  0  0  0  0  0  0
    8.8069   45.7305   35.0052 H   0  0  0  0  0  0  0  0  0  0  0  0
    8.5825   46.7767   33.5661 H   0  0  0  0  0  0  0  0  0  0  0  0
    4.6934   44.7173   33.5391 H   0  0  0  0  0  0  0  0  0  0  0  0
    5.3913   43.0898   33.7873 H   0  0  0  0  0  0  0  0  0  0  0  0
    2.7892   45.0852   34.8185 H   0  0  0  0  0  0  0  0  0  0  0  0
    4.6491   42.6784   38.7334 H   0  0  0  0  0  0  0  0  0  0  0  0
    1.5213   44.9649   36.9173 H   0  0  0  0  0  0  0  0  0  0  0  0
    2.4531   43.7768   38.8764 H   0  0  0  0  0  0  0  0  0  0  0  0
   11.3820   41.5524   31.4740 H   0  0  0  0  0  0  0  0  0  0  0  0
    9.8249   40.7190   31.7590 H   0  0  0  0  0  0  0  0  0  0  0  0
   11.7315   39.5338   30.3520 H   0  0  0  0  0  0  0  0  0  0  0  0
   10.1215   38.2684   32.6411 H   0  0  0  0  0  0  0  0  0  0  0  0
   13.6884   37.4716   31.2318 H   0  0  0  0  0  0  0  0  0  0  0  0
   10.0258   38.1746   29.7653 H   0  0  0  0  0  0  0  0  0  0  0  0
   11.2793   36.3122   32.4906 H   0  0  0  0  0  0  0  0  0  0  0  0
   11.9865   36.9113   29.7709 H   0  0  0  0  0  0  0  0  0  0  0  0
   12.3362   38.3610   34.7440 H   0  0  0  0  0  0  0  0  0  0  0  0
   16.7579   34.1797   32.4635 H   0  0  0  0  0  0  0  0  0  0  0  0
   15.3660   35.7211   37.5252 H   0  0  0  0  0  0  0  0  0  0  0  0
   15.3657   35.7214   37.5252 H   0  0  0  0  0  0  0  0  0  0  0  0
  1  2  2  0
  1  3  1  0
  3  4  1  0
  4  5  1  0
  6  1  1  0
  7  6  1  0
  6  8  1  0
  8  9  1  0
  9 10  1  0
  9 11  2  0
 10 12  1  0
 12 13  1  0
 13 14  2  0
 15 13  1  0
 14 16  1  0
 14 17  1  0
 18 15  2  0
 16 19  1  0
 16 20  2  0
 17 21  2  0
 21 18  1  0
  4 22  2  0
  4 23  1  0
 24 23  1  0
 24 25  1  0
 25 26  1  0
 25 27  1  0
 26 28  1  0
 27 29  1  0
 27 30  1  0
 30 28  1  0
 28 31  1  0
 30 32  1  0
 33 31  1  0
 34 31  1  0
 35 33  2  0
 33 36  1  0
 37 34  2  0
 38 35  1  0
 36 39  2  0
 36 37  1  0
 40 38  2  0
 40 39  1  0
 39 41  1  0
  6 42  1  6
  7 43  1  0
  7 44  1  0
  8 45  1  0
  8 46  1  0
 12 47  1  0
 12 48  1  0
 15 49  1  0
 17 50  1  0
 18 51  1  0
 21 52  1  0
 24 53  1  0
 24 54  1  0
 25 55  1  0
 27 56  1  0
 28 57  1  0
 29 58  1  0
 30 59  1  0
 32 60  1  0
 34 61  1  0
 38 62  1  0
 41 63  1  0
 41 64  1  0
M  CHG  3   5  -1  16   1  19  -1
M  END
>  <EmbedRMS>  (274) 
0.08741603162544709

$$$$

     RDKit          3D

 64 67  0  0  0  0  0  0  0  0999 V2000
   10.2858   43.7718   33.8050 C   0  0  0  0  0  0  0  0  0  0  0  0
   11.4100   43.5863   34.3573 O   0  0  0  0  0  0  0  0  0  0  0  0
    9.3668   42.7312   33.7005 O   0  0  0  0  0  0  0  0  0  0  0  0
    9.8852   41.2343   34.2848 P   0  0  0  0  0  5  0  0  0  0  0  0
   10.3653   41.4704   35.8753 O   0  0  0  0  0  1  0  0  0  0  0  0
    9.9561   45.1130   33.2475 C   0  0  2  0  0  0  0  0  0  0  0  0
   11.0685   46.0355   33.4826 N   0  0  0  0  0  0  0  0  0  0  0  0
    8.6504   45.6626   33.8575 C   0  0  0  0  0  0  0  0  0  0  0  0
    8.7467   45.8649   35.3411 C   0  0  0  0  0  0  0  0  0  0  0  0
    9.3047   47.0484   35.8404 O   0  0  0  0  0  0  0  0  0  0  0  0
    8.3551   44.9559   36.1232 O   0  0  0  0  0  0  0  0  0  0  0  0
    9.4010   47.3506   37.2338 C   0  0  0  0  0  0  0  0  0  0  0  0
   10.7230   46.9199   37.8410 C   0  0  0  0  0  0  0  0  0  0  0  0
   11.1826   47.4901   39.0599 C   0  0  0  0  0  0  0  0  0  0  0  0
   11.5183   45.9428   37.2072 C   0  0  0  0  0  0  0  0  0  0  0  0
   10.3967   48.4498   39.7902 N   0  0  0  0  0  4  0  0  0  0  0  0
   12.4383   47.1107   39.5686 C   0  0  0  0  0  0  0  0  0  0  0  0
   12.7526   45.5688   37.7388 C   0  0  0  0  0  0  0  0  0  0  0  0
    9.0381   48.2828   39.9271 O   0  0  0  0  0  1  0  0  0  0  0  0
   10.9603   49.3455   40.4527 O   0  0  0  0  0  0  0  0  0  0  0  0
   13.2155   46.1570   38.9126 C   0  0  0  0  0  0  0  0  0  0  0  0
    8.8081   40.1911   34.2086 O   0  0  0  0  0  0  0  0  0  0  0  0
   11.2380   40.7907   33.3699 O   0  0  0  0  0  0  0  0  0  0  0  0
   10.9187   40.6906   31.9964 C   0  0  0  0  0  0  0  0  0  0  0  0
   11.5174   39.3825   31.4413 C   0  0  0  0  0  0  0  0  0  0  0  0
   12.7494   39.0893   32.0757 O   0  0  0  0  0  0  0  0  0  0  0  0
   10.6036   38.1900   31.6660 C   0  0  0  0  0  0  0  0  0  0  0  0
   12.9401   37.6834   32.0276 C   0  0  0  0  0  0  0  0  0  0  0  0
    9.6377   38.0785   30.6474 O   0  0  0  0  0  0  0  0  0  0  0  0
   11.5804   37.0204   31.6937 C   0  0  0  0  0  0  0  0  0  0  0  0
   13.4902   37.2177   33.3237 N   0  0  0  0  0  0  0  0  0  0  0  0
   11.6118   36.3193   30.4680 O   0  0  0  0  0  0  0  0  0  0  0  0
   14.4758   36.3271   33.5731 C   0  0  0  0  0  0  0  0  0  0  0  0
   13.1176   37.6318   34.5688 C   0  0  0  0  0  0  0  0  0  0  0  0
   15.2064   35.6142   32.6742 N   0  0  0  0  0  0  0  0  0  0  0  0
   14.6729   36.2274   34.9184 C   0  0  0  0  0  0  0  0  0  0  0  0
   13.8221   37.0458   35.5784 N   0  0  0  0  0  0  0  0  0  0  0  0
   16.1637   34.7597   33.1549 C   0  0  0  0  0  0  0  0  0  0  0  0
   15.6514   35.3493   35.4133 C   0  0  0  0  0  0  0  0  0  0  0  0
   16.3791   34.6312   34.5044 N   0  0  0  0  0  0  0  0  0  0  0  0
   15.9001   35.1935   36.8091 N   0  0  0  0  0  0  0  0  0  0  0  0
    9.8040   44.9992   32.1505 H   0  0  0  0  0  0  0  0  0  0  0  0
   11.8886   45.7164   32.9159 H   0  0  0  0  0  0  0  0  0  0  0  0
   10.8092   46.9725   33.0965 H   0  0  0  0  0  0  0  0  0  0  0  0
    8.4021   46.6347   33.3797 H   0  0  0  0  0  0  0  0  0  0  0  0
    7.8100   44.9703   33.6306 H   0  0  0  0  0  0  0  0  0  0  0  0
    8.5585   46.8868   37.7906 H   0  0  0  0  0  0  0  0  0  0  0  0
    9.3062   48.4524   37.3323 H   0  0  0  0  0  0  0  0  0  0  0  0
   11.2003   45.4686   36.2927 H   0  0  0  0  0  0  0  0  0  0  0  0
   12.8078   47.5405   40.4912 H   0  0  0  0  0  0  0  0  0  0  0  0
   13.3540   44.8227   37.2353 H   0  0  0  0  0  0  0  0  0  0  0  0
   14.1752   45.8670   39.3206 H   0  0  0  0  0  0  0  0  0  0  0  0
    9.8308   40.7397   31.7563 H   0  0  0  0  0  0  0  0  0  0  0  0
   11.3996   41.5456   31.4748 H   0  0  0  0  0  0  0  0  0  0  0  0
   11.6989   39.5093   30.3491 H   0  0  0  0  0  0  0  0  0  0  0  0
   10.1130   38.2589   32.6664 H   0  0  0  0  0  0  0  0  0  0  0  0
   13.6800   37.4628   31.2266 H   0  0  0  0  0  0  0  0  0  0  0  0
    8.8953   38.6909   30.8891 H   0  0  0  0  0  0  0  0  0  0  0  0
   11.2830   36.3060   32.4929 H   0  0  0  0  0  0  0  0  0  0  0  0
   11.8860   36.9590   29.7593 H   0  0  0  0  0  0  0  0  0  0  0  0
   12.3361   38.3601   34.7442 H   0  0  0  0  0  0  0  0  0  0  0  0
   16.7572   34.1793   32.4621 H   0  0  0  0  0  0  0  0  0  0  0  0
   16.6362   34.5318   37.1415 H   0  0  0  0  0  0  0  0  0  0  0  0
   15.3529   35.7356   37.5140 H   0  0  0  0  0  0  0  0  0  0  0  0
  1  2  2  0
  1  3  1  0
  3  4  1  0
  4  5  1  0
  6  1  1  0
  7  6  1  0
  6  8  1  0
  8  9  1  0
  9 10  1  0
  9 11  2  0
 10 12  1  0
 12 13  1  0
 13 14  2  0
 15 13  1  0
 14 16  1  0
 14 17  1  0
 18 15  2  0
 16 19  1  0
 16 20  2  0
 17 21  2  0
 21 18  1  0
  4 22  2  0
  4 23  1  0
 24 23  1  0
 24 25  1  0
 25 26  1  0
 25 27  1  0
 26 28  1  0
 27 29  1  0
 27 30  1  0
 30 28  1  0
 28 31  1  0
 30 32  1  0
 33 31  1  0
 34 31  1  0
 35 33  2  0
 33 36  1  0
 37 34  2  0
 38 35  1  0
 36 39  2  0
 36 37  1  0
 40 38  2  0
 40 39  1  0
 39 41  1  0
  6 42  1  6
  7 43  1  0
  7 44  1  0
  8 45  1  0
  8 46  1  0
 12 47  1  0
 12 48  1  0
 15 49  1  0
 17 50  1  0
 18 51  1  0
 21 52  1  0
 24 53  1  0
 24 54  1  0
 25 55  1  0
 27 56  1  0
 28 57  1  0
 29 58  1  0
 30 59  1  0
 32 60  1  0
 34 61  1  0
 38 62  1  0
 41 63  1  0
 41 64  1  0
M  CHG  3   5  -1  16   1  19  -1
M  END
>  <EmbedRMS>  (275) 
0.08819526753538776

$$$$

     RDKit          3D

 64 67  0  0  0  0  0  0  0  0999 V2000
   10.2876   43.7688   33.8086 C   0  0  0  0  0  0  0  0  0  0  0  0
   11.4116   43.5793   34.3595 O   0  0  0  0  0  0  0  0  0  0  0  0
    9.3665   42.7305   33.7018 O   0  0  0  0  0  0  0  0  0  0  0  0
    9.8843   41.2326   34.2836 P   0  0  0  0  0  5  0  0  0  0  0  0
   10.3657   41.4677   35.8740 O   0  0  0  0  0  1  0  0  0  0  0  0
    9.9638   45.1117   33.2470 C   0  0  2  0  0  0  0  0  0  0  0  0
   11.0620   46.0541   33.4764 N   0  0  0  0  0  0  0  0  0  0  0  0
    8.6427   45.6683   33.8114 C   0  0  0  0  0  0  0  0  0  0  0  0
    8.6692   45.8298   35.3024 C   0  0  0  0  0  0  0  0  0  0  0  0
    9.1027   47.0396   35.8557 O   0  0  0  0  0  0  0  0  0  0  0  0
    8.3298   44.8670   36.0435 O   0  0  0  0  0  0  0  0  0  0  0  0
    9.1513   47.2833   37.2602 C   0  0  0  0  0  0  0  0  0  0  0  0
    7.7583   47.3666   37.8413 C   0  0  0  0  0  0  0  0  0  0  0  0
    6.7648   48.2306   37.3064 C   0  0  0  0  0  0  0  0  0  0  0  0
    7.4297   46.5292   38.9233 C   0  0  0  0  0  0  0  0  0  0  0  0
    7.0438   49.1249   36.2135 N   0  0  0  0  0  4  0  0  0  0  0  0
    5.4674   48.2010   37.8506 C   0  0  0  0  0  0  0  0  0  0  0  0
    6.1407   46.5274   39.4575 C   0  0  0  0  0  0  0  0  0  0  0  0
    8.2358   49.8080   36.1514 O   0  0  0  0  0  1  0  0  0  0  0  0
    6.1451   49.4129   35.3961 O   0  0  0  0  0  0  0  0  0  0  0  0
    5.1603   47.3579   38.9191 C   0  0  0  0  0  0  0  0  0  0  0  0
    8.8064   40.1903   34.2081 O   0  0  0  0  0  0  0  0  0  0  0  0
   11.2360   40.7898   33.3662 O   0  0  0  0  0  0  0  0  0  0  0  0
   10.9131   40.6842   31.9934 C   0  0  0  0  0  0  0  0  0  0  0  0
   11.5173   39.3773   31.4395 C   0  0  0  0  0  0  0  0  0  0  0  0
   12.7476   39.0869   32.0757 O   0  0  0  0  0  0  0  0  0  0  0  0
   10.6068   38.1850   31.6657 C   0  0  0  0  0  0  0  0  0  0  0  0
   12.9372   37.6811   32.0290 C   0  0  0  0  0  0  0  0  0  0  0  0
    9.6404   38.0882   30.6475 O   0  0  0  0  0  0  0  0  0  0  0  0
   11.5789   37.0134   31.7045 C   0  0  0  0  0  0  0  0  0  0  0  0
   13.4915   37.2182   33.3239 N   0  0  0  0  0  0  0  0  0  0  0  0
   11.6125   36.3389   30.4673 O   0  0  0  0  0  0  0  0  0  0  0  0
   14.4766   36.3272   33.5730 C   0  0  0  0  0  0  0  0  0  0  0  0
   13.1184   37.6317   34.5690 C   0  0  0  0  0  0  0  0  0  0  0  0
   15.2066   35.6139   32.6740 N   0  0  0  0  0  0  0  0  0  0  0  0
   14.6735   36.2273   34.9184 C   0  0  0  0  0  0  0  0  0  0  0  0
   13.8228   37.0455   35.5785 N   0  0  0  0  0  0  0  0  0  0  0  0
   16.1638   34.7593   33.1548 C   0  0  0  0  0  0  0  0  0  0  0  0
   15.6517   35.3491   35.4132 C   0  0  0  0  0  0  0  0  0  0  0  0
   16.3792   34.6308   34.5043 N   0  0  0  0  0  0  0  0  0  0  0  0
   15.9004   35.1932   36.8090 N   0  0  0  0  0  0  0  0  0  0  0  0
    9.8329   44.9918   32.1490 H   0  0  0  0  0  0  0  0  0  0  0  0
   11.9098   45.7269   32.9573 H   0  0  0  0  0  0  0  0  0  0  0  0
   11.3025   46.0979   34.4940 H   0  0  0  0  0  0  0  0  0  0  0  0
    7.8031   44.9955   33.5297 H   0  0  0  0  0  0  0  0  0  0  0  0
    8.4363   46.6566   33.3466 H   0  0  0  0  0  0  0  0  0  0  0  0
    9.7522   46.4837   37.7467 H   0  0  0  0  0  0  0  0  0  0  0  0
    9.6858   48.2364   37.4494 H   0  0  0  0  0  0  0  0  0  0  0  0
    8.1703   45.8638   39.3498 H   0  0  0  0  0  0  0  0  0  0  0  0
    4.6933   48.8467   37.4555 H   0  0  0  0  0  0  0  0  0  0  0  0
    5.9001   45.8752   40.2871 H   0  0  0  0  0  0  0  0  0  0  0  0
    4.1601   47.3515   39.3328 H   0  0  0  0  0  0  0  0  0  0  0  0
    9.8230   40.7188   31.7570 H   0  0  0  0  0  0  0  0  0  0  0  0
   11.3848   41.5415   31.4672 H   0  0  0  0  0  0  0  0  0  0  0  0
   11.7005   39.5019   30.3472 H   0  0  0  0  0  0  0  0  0  0  0  0
   10.1097   38.2749   32.6605 H   0  0  0  0  0  0  0  0  0  0  0  0
   13.6713   37.4593   31.2227 H   0  0  0  0  0  0  0  0  0  0  0  0
    9.0033   37.3834   30.9350 H   0  0  0  0  0  0  0  0  0  0  0  0
   11.2706   36.3048   32.5088 H   0  0  0  0  0  0  0  0  0  0  0  0
   12.1444   35.5137   30.6141 H   0  0  0  0  0  0  0  0  0  0  0  0
   12.3362   38.3592   34.7445 H   0  0  0  0  0  0  0  0  0  0  0  0
   16.7571   34.1787   32.4620 H   0  0  0  0  0  0  0  0  0  0  0  0
   16.6362   34.5314   37.1415 H   0  0  0  0  0  0  0  0  0  0  0  0
   15.3531   35.7355   37.5139 H   0  0  0  0  0  0  0  0  0  0  0  0
  1  2  2  0
  1  3  1  0
  3  4  1  0
  4  5  1  0
  6  1  1  0
  7  6  1  0
  6  8  1  0
  8  9  1  0
  9 10  1  0
  9 11  2  0
 10 12  1  0
 12 13  1  0
 13 14  2  0
 15 13  1  0
 14 16  1  0
 14 17  1  0
 18 15  2  0
 16 19  1  0
 16 20  2  0
 17 21  2  0
 21 18  1  0
  4 22  2  0
  4 23  1  0
 24 23  1  0
 24 25  1  0
 25 26  1  0
 25 27  1  0
 26 28  1  0
 27 29  1  0
 27 30  1  0
 30 28  1  0
 28 31  1  0
 30 32  1  0
 33 31  1  0
 34 31  1  0
 35 33  2  0
 33 36  1  0
 37 34  2  0
 38 35  1  0
 36 39  2  0
 36 37  1  0
 40 38  2  0
 40 39  1  0
 39 41  1  0
  6 42  1  6
  7 43  1  0
  7 44  1  0
  8 45  1  0
  8 46  1  0
 12 47  1  0
 12 48  1  0
 15 49  1  0
 17 50  1  0
 18 51  1  0
 21 52  1  0
 24 53  1  0
 24 54  1  0
 25 55  1  0
 27 56  1  0
 28 57  1  0
 29 58  1  0
 30 59  1  0
 32 60  1  0
 34 61  1  0
 38 62  1  0
 41 63  1  0
 41 64  1  0
M  CHG  3   5  -1  16   1  19  -1
M  END
>  <EmbedRMS>  (276) 
0.08947335648414181

$$$$

     RDKit          3D

 64 67  0  0  0  0  0  0  0  0999 V2000
   10.2866   43.7713   33.8013 C   0  0  0  0  0  0  0  0  0  0  0  0
   11.4109   43.5872   34.3539 O   0  0  0  0  0  0  0  0  0  0  0  0
    9.3672   42.7305   33.6991 O   0  0  0  0  0  0  0  0  0  0  0  0
    9.8855   41.2341   34.2848 P   0  0  0  0  0  5  0  0  0  0  0  0
   10.3681   41.4701   35.8745 O   0  0  0  0  0  1  0  0  0  0  0  0
    9.9594   45.1111   33.2398 C   0  0  2  0  0  0  0  0  0  0  0  0
   11.0644   46.0377   33.4942 N   0  0  0  0  0  0  0  0  0  0  0  0
    8.6160   45.6579   33.7763 C   0  0  0  0  0  0  0  0  0  0  0  0
    8.5567   45.6934   35.2752 C   0  0  0  0  0  0  0  0  0  0  0  0
    8.3085   44.5089   35.9726 O   0  0  0  0  0  0  0  0  0  0  0  0
    8.7616   46.7748   35.8912 O   0  0  0  0  0  0  0  0  0  0  0  0
    8.3123   44.4247   37.3942 C   0  0  0  0  0  0  0  0  0  0  0  0
    8.0953   42.9963   37.8408 C   0  0  0  0  0  0  0  0  0  0  0  0
    8.6425   42.5038   39.0561 C   0  0  0  0  0  0  0  0  0  0  0  0
    7.3244   42.1302   37.0392 C   0  0  0  0  0  0  0  0  0  0  0  0
    9.3483   43.3581   39.9728 N   0  0  0  0  0  4  0  0  0  0  0  0
    8.4830   41.1451   39.3805 C   0  0  0  0  0  0  0  0  0  0  0  0
    7.1630   40.7893   37.3892 C   0  0  0  0  0  0  0  0  0  0  0  0
   10.3583   42.8431   40.7525 O   0  0  0  0  0  1  0  0  0  0  0  0
    8.9289   44.5085   40.2159 O   0  0  0  0  0  0  0  0  0  0  0  0
    7.7519   40.2947   38.5506 C   0  0  0  0  0  0  0  0  0  0  0  0
    8.8077   40.1914   34.2103 O   0  0  0  0  0  0  0  0  0  0  0  0
   11.2378   40.7893   33.3693 O   0  0  0  0  0  0  0  0  0  0  0  0
   10.9188   40.6892   31.9955 C   0  0  0  0  0  0  0  0  0  0  0  0
   11.5168   39.3802   31.4399 C   0  0  0  0  0  0  0  0  0  0  0  0
   12.7477   39.0862   32.0734 O   0  0  0  0  0  0  0  0  0  0  0  0
   10.6030   38.1890   31.6667 C   0  0  0  0  0  0  0  0  0  0  0  0
   12.9334   37.6797   32.0280 C   0  0  0  0  0  0  0  0  0  0  0  0
    9.6396   38.0777   30.6457 O   0  0  0  0  0  0  0  0  0  0  0  0
   11.5739   37.0154   31.7058 C   0  0  0  0  0  0  0  0  0  0  0  0
   13.4902   37.2179   33.3231 N   0  0  0  0  0  0  0  0  0  0  0  0
   11.6211   36.3377   30.4695 O   0  0  0  0  0  0  0  0  0  0  0  0
   14.4761   36.3274   33.5725 C   0  0  0  0  0  0  0  0  0  0  0  0
   13.1178   37.6317   34.5685 C   0  0  0  0  0  0  0  0  0  0  0  0
   15.2063   35.6139   32.6737 N   0  0  0  0  0  0  0  0  0  0  0  0
   14.6733   36.2278   34.9180 C   0  0  0  0  0  0  0  0  0  0  0  0
   13.8225   37.0459   35.5780 N   0  0  0  0  0  0  0  0  0  0  0  0
   16.1636   34.7595   33.1546 C   0  0  0  0  0  0  0  0  0  0  0  0
   15.6515   35.3494   35.4129 C   0  0  0  0  0  0  0  0  0  0  0  0
   16.3790   34.6311   34.5041 N   0  0  0  0  0  0  0  0  0  0  0  0
   15.9001   35.1936   36.8088 N   0  0  0  0  0  0  0  0  0  0  0  0
    9.8600   44.9882   32.1389 H   0  0  0  0  0  0  0  0  0  0  0  0
   10.8687   46.9363   32.9958 H   0  0  0  0  0  0  0  0  0  0  0  0
   11.1195   46.2553   34.5160 H   0  0  0  0  0  0  0  0  0  0  0  0
    7.7873   45.0156   33.4070 H   0  0  0  0  0  0  0  0  0  0  0  0
    8.4398   46.6776   33.3699 H   0  0  0  0  0  0  0  0  0  0  0  0
    9.2964   44.7927   37.7552 H   0  0  0  0  0  0  0  0  0  0  0  0
    7.5038   45.0642   37.8087 H   0  0  0  0  0  0  0  0  0  0  0  0
    6.8610   42.4844   36.1269 H   0  0  0  0  0  0  0  0  0  0  0  0
    8.9049   40.7475   40.2949 H   0  0  0  0  0  0  0  0  0  0  0  0
    6.5846   40.1308   36.7541 H   0  0  0  0  0  0  0  0  0  0  0  0
    7.6286   39.2530   38.8173 H   0  0  0  0  0  0  0  0  0  0  0  0
   11.4003   41.5438   31.4739 H   0  0  0  0  0  0  0  0  0  0  0  0
    9.8309   40.7392   31.7557 H   0  0  0  0  0  0  0  0  0  0  0  0
   11.6978   39.5046   30.3473 H   0  0  0  0  0  0  0  0  0  0  0  0
   10.1088   38.2630   32.6651 H   0  0  0  0  0  0  0  0  0  0  0  0
   13.6655   37.4542   31.2208 H   0  0  0  0  0  0  0  0  0  0  0  0
    8.8962   38.6895   30.8855 H   0  0  0  0  0  0  0  0  0  0  0  0
   11.2846   36.3060   32.5176 H   0  0  0  0  0  0  0  0  0  0  0  0
   10.8523   35.7095   30.4590 H   0  0  0  0  0  0  0  0  0  0  0  0
   12.3352   38.3588   34.7441 H   0  0  0  0  0  0  0  0  0  0  0  0
   16.7569   34.1788   32.4619 H   0  0  0  0  0  0  0  0  0  0  0  0
   16.6359   34.5317   37.1413 H   0  0  0  0  0  0  0  0  0  0  0  0
   15.3528   35.7359   37.5136 H   0  0  0  0  0  0  0  0  0  0  0  0
  1  2  2  0
  1  3  1  0
  3  4  1  0
  4  5  1  0
  6  1  1  0
  7  6  1  0
  6  8  1  0
  8  9  1  0
  9 10  1  0
  9 11  2  0
 10 12  1  0
 12 13  1  0
 13 14  2  0
 15 13  1  0
 14 16  1  0
 14 17  1  0
 18 15  2  0
 16 19  1  0
 16 20  2  0
 17 21  2  0
 21 18  1  0
  4 22  2  0
  4 23  1  0
 24 23  1  0
 24 25  1  0
 25 26  1  0
 25 27  1  0
 26 28  1  0
 27 29  1  0
 27 30  1  0
 30 28  1  0
 28 31  1  0
 30 32  1  0
 33 31  1  0
 34 31  1  0
 35 33  2  0
 33 36  1  0
 37 34  2  0
 38 35  1  0
 36 39  2  0
 36 37  1  0
 40 38  2  0
 40 39  1  0
 39 41  1  0
  6 42  1  6
  7 43  1  0
  7 44  1  0
  8 45  1  0
  8 46  1  0
 12 47  1  0
 12 48  1  0
 15 49  1  0
 17 50  1  0
 18 51  1  0
 21 52  1  0
 24 53  1  0
 24 54  1  0
 25 55  1  0
 27 56  1  0
 28 57  1  0
 29 58  1  0
 30 59  1  0
 32 60  1  0
 34 61  1  0
 38 62  1  0
 41 63  1  0
 41 64  1  0
M  CHG  3   5  -1  16   1  19  -1
M  END
>  <EmbedRMS>  (277) 
0.08929805765342222

$$$$

     RDKit          3D

 64 67  0  0  0  0  0  0  0  0999 V2000
   10.2849   43.7728   33.8071 C   0  0  0  0  0  0  0  0  0  0  0  0
   11.4113   43.5868   34.3543 O   0  0  0  0  0  0  0  0  0  0  0  0
    9.3657   42.7321   33.7037 O   0  0  0  0  0  0  0  0  0  0  0  0
    9.8846   41.2345   34.2854 P   0  0  0  0  0  5  0  0  0  0  0  0
   10.3673   41.4675   35.8744 O   0  0  0  0  0  1  0  0  0  0  0  0
    9.9622   45.1085   33.2362 C   0  0  2  0  0  0  0  0  0  0  0  0
   11.0640   46.0393   33.4910 N   0  0  0  0  0  0  0  0  0  0  0  0
    8.6107   45.6550   33.7506 C   0  0  0  0  0  0  0  0  0  0  0  0
    8.5876   45.8927   35.2330 C   0  0  0  0  0  0  0  0  0  0  0  0
    8.6971   44.8091   36.1086 O   0  0  0  0  0  0  0  0  0  0  0  0
    8.4671   47.0672   35.6770 O   0  0  0  0  0  0  0  0  0  0  0  0
    8.5955   44.9449   37.5215 C   0  0  0  0  0  0  0  0  0  0  0  0
    8.9114   43.6232   38.1700 C   0  0  0  0  0  0  0  0  0  0  0  0
   10.2334   43.2525   38.5371 C   0  0  0  0  0  0  0  0  0  0  0  0
    7.8560   42.7227   38.3989 C   0  0  0  0  0  0  0  0  0  0  0  0
   11.3672   44.0961   38.2658 N   0  0  0  0  0  4  0  0  0  0  0  0
   10.4433   42.0197   39.1804 C   0  0  0  0  0  0  0  0  0  0  0  0
    8.0898   41.4950   39.0194 C   0  0  0  0  0  0  0  0  0  0  0  0
   12.4648   44.0576   39.0947 O   0  0  0  0  0  1  0  0  0  0  0  0
   11.4507   44.7230   37.1900 O   0  0  0  0  0  0  0  0  0  0  0  0
    9.3794   41.1479   39.4171 C   0  0  0  0  0  0  0  0  0  0  0  0
    8.8073   40.1915   34.2097 O   0  0  0  0  0  0  0  0  0  0  0  0
   11.2362   40.7912   33.3689 O   0  0  0  0  0  0  0  0  0  0  0  0
   10.9146   40.6899   31.9961 C   0  0  0  0  0  0  0  0  0  0  0  0
   11.5266   39.3900   31.4376 C   0  0  0  0  0  0  0  0  0  0  0  0
   12.7504   39.0919   32.0842 O   0  0  0  0  0  0  0  0  0  0  0  0
   10.6120   38.1916   31.6453 C   0  0  0  0  0  0  0  0  0  0  0  0
   12.9428   37.6855   32.0296 C   0  0  0  0  0  0  0  0  0  0  0  0
    9.6069   38.0858   30.6603 O   0  0  0  0  0  0  0  0  0  0  0  0
   11.5845   37.0187   31.6880 C   0  0  0  0  0  0  0  0  0  0  0  0
   13.4898   37.2165   33.3251 N   0  0  0  0  0  0  0  0  0  0  0  0
   11.6202   36.3063   30.4693 O   0  0  0  0  0  0  0  0  0  0  0  0
   14.4758   36.3264   33.5739 C   0  0  0  0  0  0  0  0  0  0  0  0
   13.1175   37.6309   34.5700 C   0  0  0  0  0  0  0  0  0  0  0  0
   15.2064   35.6140   32.6746 N   0  0  0  0  0  0  0  0  0  0  0  0
   14.6731   36.2268   34.9191 C   0  0  0  0  0  0  0  0  0  0  0  0
   13.8224   37.0451   35.5793 N   0  0  0  0  0  0  0  0  0  0  0  0
   16.1639   34.7596   33.1551 C   0  0  0  0  0  0  0  0  0  0  0  0
   15.6517   35.3489   35.4136 C   0  0  0  0  0  0  0  0  0  0  0  0
   16.3794   34.6310   34.5046 N   0  0  0  0  0  0  0  0  0  0  0  0
   15.9006   35.1931   36.8094 N   0  0  0  0  0  0  0  0  0  0  0  0
    9.8733   44.9744   32.1358 H   0  0  0  0  0  0  0  0  0  0  0  0
   11.1311   46.2450   34.5145 H   0  0  0  0  0  0  0  0  0  0  0  0
   10.8572   46.9424   33.0055 H   0  0  0  0  0  0  0  0  0  0  0  0
    7.7993   44.9399   33.4951 H   0  0  0  0  0  0  0  0  0  0  0  0
    8.3803   46.6043   33.2191 H   0  0  0  0  0  0  0  0  0  0  0  0
    9.2822   45.7366   37.8897 H   0  0  0  0  0  0  0  0  0  0  0  0
    7.5642   45.2674   37.7847 H   0  0  0  0  0  0  0  0  0  0  0  0
    6.8451   42.9760   38.1033 H   0  0  0  0  0  0  0  0  0  0  0  0
   11.4404   41.7189   39.4758 H   0  0  0  0  0  0  0  0  0  0  0  0
    7.2680   40.8131   39.1958 H   0  0  0  0  0  0  0  0  0  0  0  0
    9.5576   40.1963   39.9009 H   0  0  0  0  0  0  0  0  0  0  0  0
   11.3810   41.5528   31.4744 H   0  0  0  0  0  0  0  0  0  0  0  0
    9.8244   40.7187   31.7594 H   0  0  0  0  0  0  0  0  0  0  0  0
   11.7315   39.5340   30.3523 H   0  0  0  0  0  0  0  0  0  0  0  0
   10.1212   38.2681   32.6413 H   0  0  0  0  0  0  0  0  0  0  0  0
   13.6881   37.4712   31.2320 H   0  0  0  0  0  0  0  0  0  0  0  0
   10.0256   38.1751   29.7657 H   0  0  0  0  0  0  0  0  0  0  0  0
   11.2796   36.3124   32.4916 H   0  0  0  0  0  0  0  0  0  0  0  0
   11.9872   36.9100   29.7715 H   0  0  0  0  0  0  0  0  0  0  0  0
   12.3366   38.3598   34.7455 H   0  0  0  0  0  0  0  0  0  0  0  0
   16.7576   34.1795   32.4622 H   0  0  0  0  0  0  0  0  0  0  0  0
   15.3532   35.7352   37.5143 H   0  0  0  0  0  0  0  0  0  0  0  0
   16.6368   34.5316   37.1418 H   0  0  0  0  0  0  0  0  0  0  0  0
  1  2  2  0
  1  3  1  0
  3  4  1  0
  4  5  1  0
  6  1  1  0
  7  6  1  0
  6  8  1  0
  8  9  1  0
  9 10  1  0
  9 11  2  0
 10 12  1  0
 12 13  1  0
 13 14  2  0
 15 13  1  0
 14 16  1  0
 14 17  1  0
 18 15  2  0
 16 19  1  0
 16 20  2  0
 17 21  2  0
 21 18  1  0
  4 22  2  0
  4 23  1  0
 24 23  1  0
 24 25  1  0
 25 26  1  0
 25 27  1  0
 26 28  1  0
 27 29  1  0
 27 30  1  0
 30 28  1  0
 28 31  1  0
 30 32  1  0
 33 31  1  0
 34 31  1  0
 35 33  2  0
 33 36  1  0
 37 34  2  0
 38 35  1  0
 36 39  2  0
 36 37  1  0
 40 38  2  0
 40 39  1  0
 39 41  1  0
  6 42  1  6
  7 43  1  0
  7 44  1  0
  8 45  1  0
  8 46  1  0
 12 47  1  0
 12 48  1  0
 15 49  1  0
 17 50  1  0
 18 51  1  0
 21 52  1  0
 24 53  1  0
 24 54  1  0
 25 55  1  0
 27 56  1  0
 28 57  1  0
 29 58  1  0
 30 59  1  0
 32 60  1  0
 34 61  1  0
 38 62  1  0
 41 63  1  0
 41 64  1  0
M  CHG  3   5  -1  16   1  19  -1
M  END
>  <EmbedRMS>  (278) 
0.08689552338832665

$$$$

     RDKit          3D

 64 67  0  0  0  0  0  0  0  0999 V2000
   10.2863   43.7710   33.8098 C   0  0  0  0  0  0  0  0  0  0  0  0
   11.4100   43.5817   34.3616 O   0  0  0  0  0  0  0  0  0  0  0  0
    9.3668   42.7309   33.7018 O   0  0  0  0  0  0  0  0  0  0  0  0
    9.8845   41.2330   34.2841 P   0  0  0  0  0  5  0  0  0  0  0  0
   10.3655   41.4677   35.8746 O   0  0  0  0  0  1  0  0  0  0  0  0
    9.9608   45.1124   33.2471 C   0  0  2  0  0  0  0  0  0  0  0  0
   11.0653   46.0481   33.4749 N   0  0  0  0  0  0  0  0  0  0  0  0
    8.6647   45.6564   33.8708 C   0  0  0  0  0  0  0  0  0  0  0  0
    8.2770   46.9643   33.2541 C   0  0  0  0  0  0  0  0  0  0  0  0
    8.6986   48.1573   33.8511 O   0  0  0  0  0  0  0  0  0  0  0  0
    7.6075   46.9777   32.1857 O   0  0  0  0  0  0  0  0  0  0  0  0
    8.3865   49.4500   33.3340 C   0  0  0  0  0  0  0  0  0  0  0  0
    6.9136   49.7529   33.4956 C   0  0  0  0  0  0  0  0  0  0  0  0
    6.1005   50.2201   32.4286 C   0  0  0  0  0  0  0  0  0  0  0  0
    6.3596   49.6555   34.7851 C   0  0  0  0  0  0  0  0  0  0  0  0
    6.5975   50.3382   31.0874 N   0  0  0  0  0  4  0  0  0  0  0  0
    4.7689   50.5860   32.6881 C   0  0  0  0  0  0  0  0  0  0  0  0
    5.0290   50.0052   35.0188 C   0  0  0  0  0  0  0  0  0  0  0  0
    6.2462   51.4295   30.3270 O   0  0  0  0  0  1  0  0  0  0  0  0
    7.1108   49.3516   30.5214 O   0  0  0  0  0  0  0  0  0  0  0  0
    4.2360   50.4733   33.9728 C   0  0  0  0  0  0  0  0  0  0  0  0
    8.8069   40.1904   34.2081 O   0  0  0  0  0  0  0  0  0  0  0  0
   11.2365   40.7897   33.3679 O   0  0  0  0  0  0  0  0  0  0  0  0
   10.9151   40.6881   31.9948 C   0  0  0  0  0  0  0  0  0  0  0  0
   11.5260   39.3871   31.4364 C   0  0  0  0  0  0  0  0  0  0  0  0
   12.7490   39.0893   32.0820 O   0  0  0  0  0  0  0  0  0  0  0  0
   10.6123   38.1893   31.6461 C   0  0  0  0  0  0  0  0  0  0  0  0
   12.9373   37.6827   32.0301 C   0  0  0  0  0  0  0  0  0  0  0  0
    9.6150   38.0838   30.6538 O   0  0  0  0  0  0  0  0  0  0  0  0
   11.5793   37.0136   31.7014 C   0  0  0  0  0  0  0  0  0  0  0  0
   13.4906   37.2170   33.3243 N   0  0  0  0  0  0  0  0  0  0  0  0
   11.6217   36.3252   30.4725 O   0  0  0  0  0  0  0  0  0  0  0  0
   14.4763   36.3266   33.5731 C   0  0  0  0  0  0  0  0  0  0  0  0
   13.1181   37.6308   34.5695 C   0  0  0  0  0  0  0  0  0  0  0  0
   15.2065   35.6137   32.6740 N   0  0  0  0  0  0  0  0  0  0  0  0
   14.6736   36.2269   34.9185 C   0  0  0  0  0  0  0  0  0  0  0  0
   13.8229   37.0450   35.5788 N   0  0  0  0  0  0  0  0  0  0  0  0
   16.1639   34.7593   33.1546 C   0  0  0  0  0  0  0  0  0  0  0  0
   15.6519   35.3488   35.4131 C   0  0  0  0  0  0  0  0  0  0  0  0
   16.3794   34.6308   34.5041 N   0  0  0  0  0  0  0  0  0  0  0  0
   15.9007   35.1929   36.8090 N   0  0  0  0  0  0  0  0  0  0  0  0
    9.8102   44.9952   32.1508 H   0  0  0  0  0  0  0  0  0  0  0  0
   11.9221   45.7021   32.9836 H   0  0  0  0  0  0  0  0  0  0  0  0
   11.2743   46.1190   34.4984 H   0  0  0  0  0  0  0  0  0  0  0  0
    8.7963   45.7924   34.9667 H   0  0  0  0  0  0  0  0  0  0  0  0
    7.8355   44.9312   33.7171 H   0  0  0  0  0  0  0  0  0  0  0  0
    8.7430   49.5263   32.2889 H   0  0  0  0  0  0  0  0  0  0  0  0
    8.9591   50.2040   33.9140 H   0  0  0  0  0  0  0  0  0  0  0  0
    6.9662   49.3178   35.6167 H   0  0  0  0  0  0  0  0  0  0  0  0
    4.1363   50.9451   31.8860 H   0  0  0  0  0  0  0  0  0  0  0  0
    4.6154   49.9235   36.0157 H   0  0  0  0  0  0  0  0  0  0  0  0
    3.2060   50.7502   34.1575 H   0  0  0  0  0  0  0  0  0  0  0  0
   11.3825   41.5503   31.4728 H   0  0  0  0  0  0  0  0  0  0  0  0
    9.8250   40.7180   31.7578 H   0  0  0  0  0  0  0  0  0  0  0  0
   11.7291   39.5287   30.3504 H   0  0  0  0  0  0  0  0  0  0  0  0
   10.1139   38.2718   32.6379 H   0  0  0  0  0  0  0  0  0  0  0  0
   13.6726   37.4637   31.2241 H   0  0  0  0  0  0  0  0  0  0  0  0
   10.0535   38.1085   29.7638 H   0  0  0  0  0  0  0  0  0  0  0  0
   11.2646   36.3134   32.5107 H   0  0  0  0  0  0  0  0  0  0  0  0
   12.1550   35.5032   30.6316 H   0  0  0  0  0  0  0  0  0  0  0  0
   12.3362   38.3586   34.7451 H   0  0  0  0  0  0  0  0  0  0  0  0
   16.7573   34.1789   32.4618 H   0  0  0  0  0  0  0  0  0  0  0  0
   15.3535   35.7351   37.5140 H   0  0  0  0  0  0  0  0  0  0  0  0
   16.6367   34.5312   37.1413 H   0  0  0  0  0  0  0  0  0  0  0  0
  1  2  2  0
  1  3  1  0
  3  4  1  0
  4  5  1  0
  6  1  1  0
  7  6  1  0
  6  8  1  0
  8  9  1  0
  9 10  1  0
  9 11  2  0
 10 12  1  0
 12 13  1  0
 13 14  2  0
 15 13  1  0
 14 16  1  0
 14 17  1  0
 18 15  2  0
 16 19  1  0
 16 20  2  0
 17 21  2  0
 21 18  1  0
  4 22  2  0
  4 23  1  0
 24 23  1  0
 24 25  1  0
 25 26  1  0
 25 27  1  0
 26 28  1  0
 27 29  1  0
 27 30  1  0
 30 28  1  0
 28 31  1  0
 30 32  1  0
 33 31  1  0
 34 31  1  0
 35 33  2  0
 33 36  1  0
 37 34  2  0
 38 35  1  0
 36 39  2  0
 36 37  1  0
 40 38  2  0
 40 39  1  0
 39 41  1  0
  6 42  1  6
  7 43  1  0
  7 44  1  0
  8 45  1  0
  8 46  1  0
 12 47  1  0
 12 48  1  0
 15 49  1  0
 17 50  1  0
 18 51  1  0
 21 52  1  0
 24 53  1  0
 24 54  1  0
 25 55  1  0
 27 56  1  0
 28 57  1  0
 29 58  1  0
 30 59  1  0
 32 60  1  0
 34 61  1  0
 38 62  1  0
 41 63  1  0
 41 64  1  0
M  CHG  3   5  -1  16   1  19  -1
M  END
>  <EmbedRMS>  (279) 
0.08843459260099225

$$$$

     RDKit          3D

 64 67  0  0  0  0  0  0  0  0999 V2000
   10.2863   43.7710   33.8098 C   0  0  0  0  0  0  0  0  0  0  0  0
   11.4100   43.5818   34.3616 O   0  0  0  0  0  0  0  0  0  0  0  0
    9.3669   42.7308   33.7020 O   0  0  0  0  0  0  0  0  0  0  0  0
    9.8847   41.2330   34.2845 P   0  0  0  0  0  5  0  0  0  0  0  0
   10.3648   41.4678   35.8752 O   0  0  0  0  0  1  0  0  0  0  0  0
    9.9605   45.1125   33.2476 C   0  0  2  0  0  0  0  0  0  0  0  0
   11.0657   46.0479   33.4747 N   0  0  0  0  0  0  0  0  0  0  0  0
    8.6649   45.6567   33.8725 C   0  0  0  0  0  0  0  0  0  0  0  0
    8.2799   46.9668   33.2589 C   0  0  0  0  0  0  0  0  0  0  0  0
    8.7636   48.1537   33.8156 O   0  0  0  0  0  0  0  0  0  0  0  0
    7.5585   46.9874   32.2243 O   0  0  0  0  0  0  0  0  0  0  0  0
    8.4696   49.4348   33.2700 C   0  0  0  0  0  0  0  0  0  0  0  0
    9.1445   50.4964   34.0975 C   0  0  0  0  0  0  0  0  0  0  0  0
    8.5378   51.0563   35.2528 C   0  0  0  0  0  0  0  0  0  0  0  0
   10.4223   50.9371   33.7089 C   0  0  0  0  0  0  0  0  0  0  0  0
    7.2590   50.6034   35.7329 N   0  0  0  0  0  4  0  0  0  0  0  0
    9.2060   52.0821   35.9468 C   0  0  0  0  0  0  0  0  0  0  0  0
   11.0753   51.9436   34.4215 C   0  0  0  0  0  0  0  0  0  0  0  0
    6.9477   49.2635   35.7367 O   0  0  0  0  0  1  0  0  0  0  0  0
    6.4915   51.3987   36.3136 O   0  0  0  0  0  0  0  0  0  0  0  0
   10.4649   52.5205   35.5335 C   0  0  0  0  0  0  0  0  0  0  0  0
    8.8073   40.1902   34.2076 O   0  0  0  0  0  0  0  0  0  0  0  0
   11.2377   40.7903   33.3696 O   0  0  0  0  0  0  0  0  0  0  0  0
   10.9187   40.6904   31.9961 C   0  0  0  0  0  0  0  0  0  0  0  0
   11.5174   39.3823   31.4411 C   0  0  0  0  0  0  0  0  0  0  0  0
   12.7494   39.0893   32.0756 O   0  0  0  0  0  0  0  0  0  0  0  0
   10.6036   38.1899   31.6659 C   0  0  0  0  0  0  0  0  0  0  0  0
   12.9401   37.6834   32.0276 C   0  0  0  0  0  0  0  0  0  0  0  0
    9.6376   38.0784   30.6474 O   0  0  0  0  0  0  0  0  0  0  0  0
   11.5804   37.0203   31.6937 C   0  0  0  0  0  0  0  0  0  0  0  0
   13.4902   37.2177   33.3237 N   0  0  0  0  0  0  0  0  0  0  0  0
   11.6118   36.3193   30.4680 O   0  0  0  0  0  0  0  0  0  0  0  0
   14.4759   36.3271   33.5731 C   0  0  0  0  0  0  0  0  0  0  0  0
   13.1176   37.6317   34.5688 C   0  0  0  0  0  0  0  0  0  0  0  0
   15.2064   35.6141   32.6742 N   0  0  0  0  0  0  0  0  0  0  0  0
   14.6729   36.2274   34.9184 C   0  0  0  0  0  0  0  0  0  0  0  0
   13.8221   37.0457   35.5783 N   0  0  0  0  0  0  0  0  0  0  0  0
   16.1637   34.7597   33.1549 C   0  0  0  0  0  0  0  0  0  0  0  0
   15.6514   35.3493   35.4133 C   0  0  0  0  0  0  0  0  0  0  0  0
   16.3791   34.6312   34.5044 N   0  0  0  0  0  0  0  0  0  0  0  0
   15.9001   35.1935   36.8091 N   0  0  0  0  0  0  0  0  0  0  0  0
    9.8088   44.9959   32.1514 H   0  0  0  0  0  0  0  0  0  0  0  0
   11.2749   46.1196   34.4981 H   0  0  0  0  0  0  0  0  0  0  0  0
   11.9222   45.7016   32.9831 H   0  0  0  0  0  0  0  0  0  0  0  0
    8.7973   45.7913   34.9685 H   0  0  0  0  0  0  0  0  0  0  0  0
    7.8352   44.9321   33.7182 H   0  0  0  0  0  0  0  0  0  0  0  0
    8.8299   49.4793   32.2184 H   0  0  0  0  0  0  0  0  0  0  0  0
    7.3712   49.5999   33.2430 H   0  0  0  0  0  0  0  0  0  0  0  0
   10.9116   50.5070   32.8434 H   0  0  0  0  0  0  0  0  0  0  0  0
    8.7591   52.5295   36.8257 H   0  0  0  0  0  0  0  0  0  0  0  0
   12.0552   52.2797   34.1078 H   0  0  0  0  0  0  0  0  0  0  0  0
   10.9720   53.3034   36.0826 H   0  0  0  0  0  0  0  0  0  0  0  0
   11.3998   41.5454   31.4747 H   0  0  0  0  0  0  0  0  0  0  0  0
    9.8308   40.7397   31.7558 H   0  0  0  0  0  0  0  0  0  0  0  0
   11.6989   39.5091   30.3489 H   0  0  0  0  0  0  0  0  0  0  0  0
   10.1130   38.2588   32.6663 H   0  0  0  0  0  0  0  0  0  0  0  0
   13.6800   37.4628   31.2265 H   0  0  0  0  0  0  0  0  0  0  0  0
    8.8952   38.6907   30.8891 H   0  0  0  0  0  0  0  0  0  0  0  0
   11.2831   36.3060   32.4929 H   0  0  0  0  0  0  0  0  0  0  0  0
   11.8859   36.9589   29.7593 H   0  0  0  0  0  0  0  0  0  0  0  0
   12.3360   38.3600   34.7441 H   0  0  0  0  0  0  0  0  0  0  0  0
   16.7572   34.1793   32.4621 H   0  0  0  0  0  0  0  0  0  0  0  0
   15.3528   35.7356   37.5140 H   0  0  0  0  0  0  0  0  0  0  0  0
   16.6362   34.5318   37.1416 H   0  0  0  0  0  0  0  0  0  0  0  0
  1  2  2  0
  1  3  1  0
  3  4  1  0
  4  5  1  0
  6  1  1  0
  7  6  1  0
  6  8  1  0
  8  9  1  0
  9 10  1  0
  9 11  2  0
 10 12  1  0
 12 13  1  0
 13 14  2  0
 15 13  1  0
 14 16  1  0
 14 17  1  0
 18 15  2  0
 16 19  1  0
 16 20  2  0
 17 21  2  0
 21 18  1  0
  4 22  2  0
  4 23  1  0
 24 23  1  0
 24 25  1  0
 25 26  1  0
 25 27  1  0
 26 28  1  0
 27 29  1  0
 27 30  1  0
 30 28  1  0
 28 31  1  0
 30 32  1  0
 33 31  1  0
 34 31  1  0
 35 33  2  0
 33 36  1  0
 37 34  2  0
 38 35  1  0
 36 39  2  0
 36 37  1  0
 40 38  2  0
 40 39  1  0
 39 41  1  0
  6 42  1  6
  7 43  1  0
  7 44  1  0
  8 45  1  0
  8 46  1  0
 12 47  1  0
 12 48  1  0
 15 49  1  0
 17 50  1  0
 18 51  1  0
 21 52  1  0
 24 53  1  0
 24 54  1  0
 25 55  1  0
 27 56  1  0
 28 57  1  0
 29 58  1  0
 30 59  1  0
 32 60  1  0
 34 61  1  0
 38 62  1  0
 41 63  1  0
 41 64  1  0
M  CHG  3   5  -1  16   1  19  -1
M  END
>  <EmbedRMS>  (280) 
0.08883890655769207

$$$$

     RDKit          3D

 64 67  0  0  0  0  0  0  0  0999 V2000
   10.2877   43.7688   33.8085 C   0  0  0  0  0  0  0  0  0  0  0  0
   11.4117   43.5792   34.3594 O   0  0  0  0  0  0  0  0  0  0  0  0
    9.3667   42.7304   33.7018 O   0  0  0  0  0  0  0  0  0  0  0  0
    9.8841   41.2327   34.2844 P   0  0  0  0  0  5  0  0  0  0  0  0
   10.3649   41.4681   35.8749 O   0  0  0  0  0  1  0  0  0  0  0  0
    9.9636   45.1118   33.2475 C   0  0  2  0  0  0  0  0  0  0  0  0
   11.0622   46.0540   33.4761 N   0  0  0  0  0  0  0  0  0  0  0  0
    8.6433   45.6686   33.8139 C   0  0  0  0  0  0  0  0  0  0  0  0
    8.6720   45.8292   35.3049 C   0  0  0  0  0  0  0  0  0  0  0  0
    9.1010   47.0406   35.8592 O   0  0  0  0  0  0  0  0  0  0  0  0
    8.3377   44.8644   36.0459 O   0  0  0  0  0  0  0  0  0  0  0  0
    9.1765   47.2713   37.2659 C   0  0  0  0  0  0  0  0  0  0  0  0
    7.8001   47.3667   37.8899 C   0  0  0  0  0  0  0  0  0  0  0  0
    7.5476   46.9190   39.2131 C   0  0  0  0  0  0  0  0  0  0  0  0
    6.7463   47.9346   37.1477 C   0  0  0  0  0  0  0  0  0  0  0  0
    8.6042   46.4366   40.0601 N   0  0  0  0  0  4  0  0  0  0  0  0
    6.2354   46.9689   39.7172 C   0  0  0  0  0  0  0  0  0  0  0  0
    5.4548   47.9927   37.6731 C   0  0  0  0  0  0  0  0  0  0  0  0
    9.8012   47.1119   40.1266 O   0  0  0  0  0  1  0  0  0  0  0  0
    8.3781   45.5300   40.8881 O   0  0  0  0  0  0  0  0  0  0  0  0
    5.1973   47.4994   38.9505 C   0  0  0  0  0  0  0  0  0  0  0  0
    8.8064   40.1902   34.2084 O   0  0  0  0  0  0  0  0  0  0  0  0
   11.2363   40.7891   33.3687 O   0  0  0  0  0  0  0  0  0  0  0  0
   10.9157   40.6888   31.9953 C   0  0  0  0  0  0  0  0  0  0  0  0
   11.5251   39.3873   31.4365 C   0  0  0  0  0  0  0  0  0  0  0  0
   12.7486   39.0879   32.0803 O   0  0  0  0  0  0  0  0  0  0  0  0
   10.6100   38.1909   31.6470 C   0  0  0  0  0  0  0  0  0  0  0  0
   12.9348   37.6808   32.0292 C   0  0  0  0  0  0  0  0  0  0  0  0
    9.6126   38.0874   30.6546 O   0  0  0  0  0  0  0  0  0  0  0  0
   11.5767   37.0133   31.7025 C   0  0  0  0  0  0  0  0  0  0  0  0
   13.4901   37.2165   33.3236 N   0  0  0  0  0  0  0  0  0  0  0  0
   11.6322   36.3231   30.4741 O   0  0  0  0  0  0  0  0  0  0  0  0
   14.4762   36.3266   33.5727 C   0  0  0  0  0  0  0  0  0  0  0  0
   13.1179   37.6307   34.5689 C   0  0  0  0  0  0  0  0  0  0  0  0
   15.2065   35.6135   32.6738 N   0  0  0  0  0  0  0  0  0  0  0  0
   14.6736   36.2272   34.9182 C   0  0  0  0  0  0  0  0  0  0  0  0
   13.8228   37.0453   35.5783 N   0  0  0  0  0  0  0  0  0  0  0  0
   16.1640   34.7593   33.1547 C   0  0  0  0  0  0  0  0  0  0  0  0
   15.6518   35.3491   35.4131 C   0  0  0  0  0  0  0  0  0  0  0  0
   16.3795   34.6309   34.5042 N   0  0  0  0  0  0  0  0  0  0  0  0
   15.9004   35.1933   36.8089 N   0  0  0  0  0  0  0  0  0  0  0  0
    9.8314   44.9923   32.1496 H   0  0  0  0  0  0  0  0  0  0  0  0
   11.9096   45.7265   32.9565 H   0  0  0  0  0  0  0  0  0  0  0  0
   11.3034   46.0977   34.4935 H   0  0  0  0  0  0  0  0  0  0  0  0
    7.8032   44.9960   33.5331 H   0  0  0  0  0  0  0  0  0  0  0  0
    8.4365   46.6570   33.3496 H   0  0  0  0  0  0  0  0  0  0  0  0
    9.7724   46.4518   37.7204 H   0  0  0  0  0  0  0  0  0  0  0  0
    9.7114   48.2278   37.4411 H   0  0  0  0  0  0  0  0  0  0  0  0
    6.9191   48.3215   36.1511 H   0  0  0  0  0  0  0  0  0  0  0  0
    6.0211   46.6212   40.7200 H   0  0  0  0  0  0  0  0  0  0  0  0
    4.6510   48.4183   37.0863 H   0  0  0  0  0  0  0  0  0  0  0  0
    4.1941   47.5430   39.3545 H   0  0  0  0  0  0  0  0  0  0  0  0
    9.8258   40.7204   31.7576 H   0  0  0  0  0  0  0  0  0  0  0  0
   11.3847   41.5506   31.4742 H   0  0  0  0  0  0  0  0  0  0  0  0
   11.7272   39.5288   30.3502 H   0  0  0  0  0  0  0  0  0  0  0  0
   10.1122   38.2730   32.6390 H   0  0  0  0  0  0  0  0  0  0  0  0
   13.6685   37.4592   31.2224 H   0  0  0  0  0  0  0  0  0  0  0  0
   10.0514   38.1110   29.7647 H   0  0  0  0  0  0  0  0  0  0  0  0
   11.2802   36.3128   32.5195 H   0  0  0  0  0  0  0  0  0  0  0  0
   10.8625   35.6960   30.4645 H   0  0  0  0  0  0  0  0  0  0  0  0
   12.3356   38.3581   34.7445 H   0  0  0  0  0  0  0  0  0  0  0  0
   16.7575   34.1788   32.4619 H   0  0  0  0  0  0  0  0  0  0  0  0
   16.6364   34.5315   37.1415 H   0  0  0  0  0  0  0  0  0  0  0  0
   15.3531   35.7355   37.5138 H   0  0  0  0  0  0  0  0  0  0  0  0
  1  2  2  0
  1  3  1  0
  3  4  1  0
  4  5  1  0
  6  1  1  0
  7  6  1  0
  6  8  1  0
  8  9  1  0
  9 10  1  0
  9 11  2  0
 10 12  1  0
 12 13  1  0
 13 14  2  0
 15 13  1  0
 14 16  1  0
 14 17  1  0
 18 15  2  0
 16 19  1  0
 16 20  2  0
 17 21  2  0
 21 18  1  0
  4 22  2  0
  4 23  1  0
 24 23  1  0
 24 25  1  0
 25 26  1  0
 25 27  1  0
 26 28  1  0
 27 29  1  0
 27 30  1  0
 30 28  1  0
 28 31  1  0
 30 32  1  0
 33 31  1  0
 34 31  1  0
 35 33  2  0
 33 36  1  0
 37 34  2  0
 38 35  1  0
 36 39  2  0
 36 37  1  0
 40 38  2  0
 40 39  1  0
 39 41  1  0
  6 42  1  6
  7 43  1  0
  7 44  1  0
  8 45  1  0
  8 46  1  0
 12 47  1  0
 12 48  1  0
 15 49  1  0
 17 50  1  0
 18 51  1  0
 21 52  1  0
 24 53  1  0
 24 54  1  0
 25 55  1  0
 27 56  1  0
 28 57  1  0
 29 58  1  0
 30 59  1  0
 32 60  1  0
 34 61  1  0
 38 62  1  0
 41 63  1  0
 41 64  1  0
M  CHG  3   5  -1  16   1  19  -1
M  END
>  <EmbedRMS>  (281) 
0.08879731092881535

$$$$

     RDKit          3D

 64 67  0  0  0  0  0  0  0  0999 V2000
   10.2822   43.7752   33.8087 C   0  0  0  0  0  0  0  0  0  0  0  0
   11.4052   43.5918   34.3647 O   0  0  0  0  0  0  0  0  0  0  0  0
    9.3713   42.7284   33.6943 O   0  0  0  0  0  0  0  0  0  0  0  0
    9.8870   41.2332   34.2824 P   0  0  0  0  0  5  0  0  0  0  0  0
   10.3665   41.4704   35.8731 O   0  0  0  0  0  1  0  0  0  0  0  0
    9.9443   45.1226   33.2628 C   0  0  2  0  0  0  0  0  0  0  0  0
   11.0793   46.0243   33.4670 N   0  0  0  0  0  0  0  0  0  0  0  0
    8.6962   45.7026   33.9616 C   0  0  0  0  0  0  0  0  0  0  0  0
    7.4507   44.9464   33.6126 C   0  0  0  0  0  0  0  0  0  0  0  0
    6.9147   44.0416   34.5358 O   0  0  0  0  0  0  0  0  0  0  0  0
    6.9156   45.1079   32.4818 O   0  0  0  0  0  0  0  0  0  0  0  0
    5.7552   43.2532   34.2757 C   0  0  0  0  0  0  0  0  0  0  0  0
    4.5155   44.1165   34.2308 C   0  0  0  0  0  0  0  0  0  0  0  0
    4.1778   45.0121   35.2812 C   0  0  0  0  0  0  0  0  0  0  0  0
    3.6933   44.0539   33.0907 C   0  0  0  0  0  0  0  0  0  0  0  0
    4.9669   45.1082   36.4813 N   0  0  0  0  0  4  0  0  0  0  0  0
    3.0482   45.8389   35.1384 C   0  0  0  0  0  0  0  0  0  0  0  0
    2.5688   44.8721   32.9770 C   0  0  0  0  0  0  0  0  0  0  0  0
    5.4842   43.9803   37.0744 O   0  0  0  0  0  1  0  0  0  0  0  0
    5.0563   46.1972   37.0854 O   0  0  0  0  0  0  0  0  0  0  0  0
    2.2497   45.7663   33.9965 C   0  0  0  0  0  0  0  0  0  0  0  0
    8.8079   40.1918   34.2077 O   0  0  0  0  0  0  0  0  0  0  0  0
   11.2379   40.7886   33.3659 O   0  0  0  0  0  0  0  0  0  0  0  0
   10.9144   40.6839   31.9931 C   0  0  0  0  0  0  0  0  0  0  0  0
   11.5178   39.3771   31.4391 C   0  0  0  0  0  0  0  0  0  0  0  0
   12.7480   39.0866   32.0751 O   0  0  0  0  0  0  0  0  0  0  0  0
   10.6070   38.1851   31.6656 C   0  0  0  0  0  0  0  0  0  0  0  0
   12.9372   37.6808   32.0289 C   0  0  0  0  0  0  0  0  0  0  0  0
    9.6404   38.0882   30.6476 O   0  0  0  0  0  0  0  0  0  0  0  0
   11.5788   37.0133   31.7045 C   0  0  0  0  0  0  0  0  0  0  0  0
   13.4915   37.2181   33.3239 N   0  0  0  0  0  0  0  0  0  0  0  0
   11.6124   36.3387   30.4673 O   0  0  0  0  0  0  0  0  0  0  0  0
   14.4766   36.3271   33.5730 C   0  0  0  0  0  0  0  0  0  0  0  0
   13.1184   37.6317   34.5689 C   0  0  0  0  0  0  0  0  0  0  0  0
   15.2066   35.6139   32.6741 N   0  0  0  0  0  0  0  0  0  0  0  0
   14.6735   36.2274   34.9184 C   0  0  0  0  0  0  0  0  0  0  0  0
   13.8227   37.0455   35.5785 N   0  0  0  0  0  0  0  0  0  0  0  0
   16.1638   34.7592   33.1548 C   0  0  0  0  0  0  0  0  0  0  0  0
   15.6517   35.3491   35.4132 C   0  0  0  0  0  0  0  0  0  0  0  0
   16.3792   34.6308   34.5043 N   0  0  0  0  0  0  0  0  0  0  0  0
   15.9003   35.1932   36.8091 N   0  0  0  0  0  0  0  0  0  0  0  0
    9.7469   45.0266   32.1708 H   0  0  0  0  0  0  0  0  0  0  0  0
   11.8813   45.6826   32.8874 H   0  0  0  0  0  0  0  0  0  0  0  0
   10.8353   46.9617   33.0717 H   0  0  0  0  0  0  0  0  0  0  0  0
    8.8401   45.6958   35.0645 H   0  0  0  0  0  0  0  0  0  0  0  0
    8.5518   46.7608   33.6530 H   0  0  0  0  0  0  0  0  0  0  0  0
    5.9022   42.6941   33.3253 H   0  0  0  0  0  0  0  0  0  0  0  0
    5.6434   42.4905   35.0730 H   0  0  0  0  0  0  0  0  0  0  0  0
    3.9284   43.3773   32.2782 H   0  0  0  0  0  0  0  0  0  0  0  0
    2.7748   46.5325   35.9237 H   0  0  0  0  0  0  0  0  0  0  0  0
    1.9471   44.8169   32.0927 H   0  0  0  0  0  0  0  0  0  0  0  0
    1.3791   46.4028   33.9039 H   0  0  0  0  0  0  0  0  0  0  0  0
    9.8243   40.7189   31.7568 H   0  0  0  0  0  0  0  0  0  0  0  0
   11.3864   41.5411   31.4672 H   0  0  0  0  0  0  0  0  0  0  0  0
   11.7008   39.5016   30.3467 H   0  0  0  0  0  0  0  0  0  0  0  0
   10.1100   38.2753   32.6605 H   0  0  0  0  0  0  0  0  0  0  0  0
   13.6713   37.4586   31.2226 H   0  0  0  0  0  0  0  0  0  0  0  0
    9.0030   37.3839   30.9354 H   0  0  0  0  0  0  0  0  0  0  0  0
   11.2705   36.3047   32.5088 H   0  0  0  0  0  0  0  0  0  0  0  0
   12.1440   35.5134   30.6141 H   0  0  0  0  0  0  0  0  0  0  0  0
   12.3361   38.3591   34.7444 H   0  0  0  0  0  0  0  0  0  0  0  0
   16.7571   34.1786   32.4620 H   0  0  0  0  0  0  0  0  0  0  0  0
   16.6362   34.5314   37.1416 H   0  0  0  0  0  0  0  0  0  0  0  0
   15.3531   35.7355   37.5139 H   0  0  0  0  0  0  0  0  0  0  0  0
  1  2  2  0
  1  3  1  0
  3  4  1  0
  4  5  1  0
  6  1  1  0
  7  6  1  0
  6  8  1  0
  8  9  1  0
  9 10  1  0
  9 11  2  0
 10 12  1  0
 12 13  1  0
 13 14  2  0
 15 13  1  0
 14 16  1  0
 14 17  1  0
 18 15  2  0
 16 19  1  0
 16 20  2  0
 17 21  2  0
 21 18  1  0
  4 22  2  0
  4 23  1  0
 24 23  1  0
 24 25  1  0
 25 26  1  0
 25 27  1  0
 26 28  1  0
 27 29  1  0
 27 30  1  0
 30 28  1  0
 28 31  1  0
 30 32  1  0
 33 31  1  0
 34 31  1  0
 35 33  2  0
 33 36  1  0
 37 34  2  0
 38 35  1  0
 36 39  2  0
 36 37  1  0
 40 38  2  0
 40 39  1  0
 39 41  1  0
  6 42  1  6
  7 43  1  0
  7 44  1  0
  8 45  1  0
  8 46  1  0
 12 47  1  0
 12 48  1  0
 15 49  1  0
 17 50  1  0
 18 51  1  0
 21 52  1  0
 24 53  1  0
 24 54  1  0
 25 55  1  0
 27 56  1  0
 28 57  1  0
 29 58  1  0
 30 59  1  0
 32 60  1  0
 34 61  1  0
 38 62  1  0
 41 63  1  0
 41 64  1  0
M  CHG  3   5  -1  16   1  19  -1
M  END
>  <EmbedRMS>  (282) 
0.08936014537862261

$$$$

     RDKit          3D

 64 67  0  0  0  0  0  0  0  0999 V2000
   10.2861   43.7711   33.8099 C   0  0  0  0  0  0  0  0  0  0  0  0
   11.4099   43.5819   34.3615 O   0  0  0  0  0  0  0  0  0  0  0  0
    9.3666   42.7310   33.7021 O   0  0  0  0  0  0  0  0  0  0  0  0
    9.8843   41.2332   34.2846 P   0  0  0  0  0  5  0  0  0  0  0  0
   10.3652   41.4679   35.8751 O   0  0  0  0  0  1  0  0  0  0  0  0
    9.9605   45.1127   33.2475 C   0  0  2  0  0  0  0  0  0  0  0  0
   11.0657   46.0474   33.4747 N   0  0  0  0  0  0  0  0  0  0  0  0
    8.6653   45.6575   33.8729 C   0  0  0  0  0  0  0  0  0  0  0  0
    8.2728   46.9619   33.2513 C   0  0  0  0  0  0  0  0  0  0  0  0
    8.7592   48.1546   33.7931 O   0  0  0  0  0  0  0  0  0  0  0  0
    7.5418   46.9722   32.2233 O   0  0  0  0  0  0  0  0  0  0  0  0
    8.4463   49.4323   33.2474 C   0  0  0  0  0  0  0  0  0  0  0  0
    9.1754   50.5061   34.0159 C   0  0  0  0  0  0  0  0  0  0  0  0
   10.5868   50.4891   34.1829 C   0  0  0  0  0  0  0  0  0  0  0  0
    8.4255   51.5338   34.6178 C   0  0  0  0  0  0  0  0  0  0  0  0
   11.4117   49.4764   33.5780 N   0  0  0  0  0  4  0  0  0  0  0  0
   11.1947   51.4824   34.9728 C   0  0  0  0  0  0  0  0  0  0  0  0
    9.0512   52.5180   35.3839 C   0  0  0  0  0  0  0  0  0  0  0  0
   11.1702   49.0494   32.2931 O   0  0  0  0  0  1  0  0  0  0  0  0
   12.4548   49.0964   34.1492 O   0  0  0  0  0  0  0  0  0  0  0  0
   10.4322   52.4897   35.5650 C   0  0  0  0  0  0  0  0  0  0  0  0
    8.8069   40.1904   34.2083 O   0  0  0  0  0  0  0  0  0  0  0  0
   11.2364   40.7902   33.3689 O   0  0  0  0  0  0  0  0  0  0  0  0
   10.9152   40.6897   31.9959 C   0  0  0  0  0  0  0  0  0  0  0  0
   11.5269   39.3898   31.4373 C   0  0  0  0  0  0  0  0  0  0  0  0
   12.7507   39.0916   32.0839 O   0  0  0  0  0  0  0  0  0  0  0  0
   10.6121   38.1915   31.6451 C   0  0  0  0  0  0  0  0  0  0  0  0
   12.9429   37.6853   32.0295 C   0  0  0  0  0  0  0  0  0  0  0  0
    9.6069   38.0857   30.6602 O   0  0  0  0  0  0  0  0  0  0  0  0
   11.5845   37.0186   31.6879 C   0  0  0  0  0  0  0  0  0  0  0  0
   13.4899   37.2163   33.3250 N   0  0  0  0  0  0  0  0  0  0  0  0
   11.6202   36.3062   30.4693 O   0  0  0  0  0  0  0  0  0  0  0  0
   14.4759   36.3263   33.5738 C   0  0  0  0  0  0  0  0  0  0  0  0
   13.1176   37.6307   34.5699 C   0  0  0  0  0  0  0  0  0  0  0  0
   15.2065   35.6139   32.6746 N   0  0  0  0  0  0  0  0  0  0  0  0
   14.6731   36.2267   34.9191 C   0  0  0  0  0  0  0  0  0  0  0  0
   13.8224   37.0450   35.5792 N   0  0  0  0  0  0  0  0  0  0  0  0
   16.1640   34.7596   33.1551 C   0  0  0  0  0  0  0  0  0  0  0  0
   15.6517   35.3489   35.4136 C   0  0  0  0  0  0  0  0  0  0  0  0
   16.3795   34.6310   34.5046 N   0  0  0  0  0  0  0  0  0  0  0  0
   15.9006   35.1931   36.8094 N   0  0  0  0  0  0  0  0  0  0  0  0
    9.8087   44.9960   32.1514 H   0  0  0  0  0  0  0  0  0  0  0  0
   11.9223   45.7021   32.9826 H   0  0  0  0  0  0  0  0  0  0  0  0
   11.2752   46.1200   34.4980 H   0  0  0  0  0  0  0  0  0  0  0  0
    7.8374   44.9291   33.7269 H   0  0  0  0  0  0  0  0  0  0  0  0
    8.8010   45.8002   34.9674 H   0  0  0  0  0  0  0  0  0  0  0  0
    7.3455   49.5823   33.2984 H   0  0  0  0  0  0  0  0  0  0  0  0
    8.7341   49.4782   32.1761 H   0  0  0  0  0  0  0  0  0  0  0  0
    7.3491   51.5708   34.5037 H   0  0  0  0  0  0  0  0  0  0  0  0
   12.2678   51.4861   35.1171 H   0  0  0  0  0  0  0  0  0  0  0  0
    8.4623   53.3012   35.8438 H   0  0  0  0  0  0  0  0  0  0  0  0
   10.9144   53.2521   36.1632 H   0  0  0  0  0  0  0  0  0  0  0  0
    9.8252   40.7190   31.7585 H   0  0  0  0  0  0  0  0  0  0  0  0
   11.3823   41.5526   31.4747 H   0  0  0  0  0  0  0  0  0  0  0  0
   11.7318   39.5338   30.3520 H   0  0  0  0  0  0  0  0  0  0  0  0
   10.1214   38.2681   32.6412 H   0  0  0  0  0  0  0  0  0  0  0  0
   13.6882   37.4709   31.2319 H   0  0  0  0  0  0  0  0  0  0  0  0
   10.0256   38.1750   29.7656 H   0  0  0  0  0  0  0  0  0  0  0  0
   11.2796   36.3123   32.4915 H   0  0  0  0  0  0  0  0  0  0  0  0
   11.9872   36.9099   29.7714 H   0  0  0  0  0  0  0  0  0  0  0  0
   12.3365   38.3595   34.7453 H   0  0  0  0  0  0  0  0  0  0  0  0
   16.7576   34.1794   32.4622 H   0  0  0  0  0  0  0  0  0  0  0  0
   16.6368   34.5316   37.1418 H   0  0  0  0  0  0  0  0  0  0  0  0
   15.3532   35.7351   37.5143 H   0  0  0  0  0  0  0  0  0  0  0  0
  1  2  2  0
  1  3  1  0
  3  4  1  0
  4  5  1  0
  6  1  1  0
  7  6  1  0
  6  8  1  0
  8  9  1  0
  9 10  1  0
  9 11  2  0
 10 12  1  0
 12 13  1  0
 13 14  2  0
 15 13  1  0
 14 16  1  0
 14 17  1  0
 18 15  2  0
 16 19  1  0
 16 20  2  0
 17 21  2  0
 21 18  1  0
  4 22  2  0
  4 23  1  0
 24 23  1  0
 24 25  1  0
 25 26  1  0
 25 27  1  0
 26 28  1  0
 27 29  1  0
 27 30  1  0
 30 28  1  0
 28 31  1  0
 30 32  1  0
 33 31  1  0
 34 31  1  0
 35 33  2  0
 33 36  1  0
 37 34  2  0
 38 35  1  0
 36 39  2  0
 36 37  1  0
 40 38  2  0
 40 39  1  0
 39 41  1  0
  6 42  1  6
  7 43  1  0
  7 44  1  0
  8 45  1  0
  8 46  1  0
 12 47  1  0
 12 48  1  0
 15 49  1  0
 17 50  1  0
 18 51  1  0
 21 52  1  0
 24 53  1  0
 24 54  1  0
 25 55  1  0
 27 56  1  0
 28 57  1  0
 29 58  1  0
 30 59  1  0
 32 60  1  0
 34 61  1  0
 38 62  1  0
 41 63  1  0
 41 64  1  0
M  CHG  3   5  -1  16   1  19  -1
M  END
>  <EmbedRMS>  (283) 
0.08750142509819851

$$$$

     RDKit          3D

 64 67  0  0  0  0  0  0  0  0999 V2000
   10.2862   43.7710   33.8100 C   0  0  0  0  0  0  0  0  0  0  0  0
   11.4100   43.5817   34.3616 O   0  0  0  0  0  0  0  0  0  0  0  0
    9.3668   42.7309   33.7018 O   0  0  0  0  0  0  0  0  0  0  0  0
    9.8849   41.2328   34.2832 P   0  0  0  0  0  5  0  0  0  0  0  0
   10.3662   41.4673   35.8738 O   0  0  0  0  0  1  0  0  0  0  0  0
    9.9611   45.1122   33.2467 C   0  0  2  0  0  0  0  0  0  0  0  0
   11.0654   46.0480   33.4751 N   0  0  0  0  0  0  0  0  0  0  0  0
    8.6645   45.6574   33.8685 C   0  0  0  0  0  0  0  0  0  0  0  0
    8.2706   46.9571   33.2382 C   0  0  0  0  0  0  0  0  0  0  0  0
    7.6219   46.9491   31.9970 O   0  0  0  0  0  0  0  0  0  0  0  0
    8.5645   48.0439   33.8069 O   0  0  0  0  0  0  0  0  0  0  0  0
    7.2291   48.1348   31.3035 C   0  0  0  0  0  0  0  0  0  0  0  0
    8.2865   48.6278   30.3333 C   0  0  0  0  0  0  0  0  0  0  0  0
    7.9501   49.5431   29.2981 C   0  0  0  0  0  0  0  0  0  0  0  0
    9.6208   48.1805   30.4364 C   0  0  0  0  0  0  0  0  0  0  0  0
    6.6188   50.0731   29.1584 N   0  0  0  0  0  4  0  0  0  0  0  0
    8.9393   49.9390   28.3791 C   0  0  0  0  0  0  0  0  0  0  0  0
   10.5887   48.5996   29.5232 C   0  0  0  0  0  0  0  0  0  0  0  0
    5.8969   50.4558   30.2651 O   0  0  0  0  0  1  0  0  0  0  0  0
    6.1720   50.3511   28.0262 O   0  0  0  0  0  0  0  0  0  0  0  0
   10.2477   49.4715   28.4932 C   0  0  0  0  0  0  0  0  0  0  0  0
    8.8070   40.1904   34.2076 O   0  0  0  0  0  0  0  0  0  0  0  0
   11.2367   40.7901   33.3660 O   0  0  0  0  0  0  0  0  0  0  0  0
   10.9141   40.6850   31.9931 C   0  0  0  0  0  0  0  0  0  0  0  0
   11.5165   39.3773   31.4393 C   0  0  0  0  0  0  0  0  0  0  0  0
   12.7471   39.0855   32.0739 O   0  0  0  0  0  0  0  0  0  0  0  0
   10.6047   38.1867   31.6669 C   0  0  0  0  0  0  0  0  0  0  0  0
   12.9345   37.6791   32.0282 C   0  0  0  0  0  0  0  0  0  0  0  0
    9.6378   38.0917   30.6488 O   0  0  0  0  0  0  0  0  0  0  0  0
   11.5761   37.0129   31.7056 C   0  0  0  0  0  0  0  0  0  0  0  0
   13.4909   37.2177   33.3233 N   0  0  0  0  0  0  0  0  0  0  0  0
   11.6234   36.3371   30.4684 O   0  0  0  0  0  0  0  0  0  0  0  0
   14.4765   36.3272   33.5727 C   0  0  0  0  0  0  0  0  0  0  0  0
   13.1182   37.6316   34.5685 C   0  0  0  0  0  0  0  0  0  0  0  0
   15.2066   35.6137   32.6739 N   0  0  0  0  0  0  0  0  0  0  0  0
   14.6736   36.2276   34.9182 C   0  0  0  0  0  0  0  0  0  0  0  0
   13.8227   37.0457   35.5781 N   0  0  0  0  0  0  0  0  0  0  0  0
   16.1638   34.7593   33.1547 C   0  0  0  0  0  0  0  0  0  0  0  0
   15.6517   35.3493   35.4131 C   0  0  0  0  0  0  0  0  0  0  0  0
   16.3792   34.6309   34.5043 N   0  0  0  0  0  0  0  0  0  0  0  0
   15.9003   35.1934   36.8090 N   0  0  0  0  0  0  0  0  0  0  0  0
    9.8119   44.9937   32.1503 H   0  0  0  0  0  0  0  0  0  0  0  0
   11.2762   46.1168   34.4983 H   0  0  0  0  0  0  0  0  0  0  0  0
   11.9213   45.7041   32.9807 H   0  0  0  0  0  0  0  0  0  0  0  0
    7.8367   44.9319   33.7128 H   0  0  0  0  0  0  0  0  0  0  0  0
    8.7938   45.7942   34.9651 H   0  0  0  0  0  0  0  0  0  0  0  0
    6.3101   47.8881   30.7311 H   0  0  0  0  0  0  0  0  0  0  0  0
    6.9727   48.9383   32.0271 H   0  0  0  0  0  0  0  0  0  0  0  0
    9.9263   47.4953   31.2124 H   0  0  0  0  0  0  0  0  0  0  0  0
    8.6996   50.6299   27.5806 H   0  0  0  0  0  0  0  0  0  0  0  0
   11.6065   48.2418   29.6124 H   0  0  0  0  0  0  0  0  0  0  0  0
   11.0006   49.7917   27.7845 H   0  0  0  0  0  0  0  0  0  0  0  0
    9.8242   40.7213   31.7563 H   0  0  0  0  0  0  0  0  0  0  0  0
   11.3872   41.5416   31.4671 H   0  0  0  0  0  0  0  0  0  0  0  0
   11.6986   39.5013   30.3467 H   0  0  0  0  0  0  0  0  0  0  0  0
   10.1095   38.2770   32.6628 H   0  0  0  0  0  0  0  0  0  0  0  0
   13.6672   37.4545   31.2213 H   0  0  0  0  0  0  0  0  0  0  0  0
    8.9779   37.4157   30.9533 H   0  0  0  0  0  0  0  0  0  0  0  0
   11.2861   36.3041   32.5177 H   0  0  0  0  0  0  0  0  0  0  0  0
   10.8690   35.6918   30.4657 H   0  0  0  0  0  0  0  0  0  0  0  0
   12.3356   38.3587   34.7439 H   0  0  0  0  0  0  0  0  0  0  0  0
   16.7572   34.1786   32.4621 H   0  0  0  0  0  0  0  0  0  0  0  0
   15.3530   35.7358   37.5138 H   0  0  0  0  0  0  0  0  0  0  0  0
   16.6361   34.5315   37.1415 H   0  0  0  0  0  0  0  0  0  0  0  0
  1  2  2  0
  1  3  1  0
  3  4  1  0
  4  5  1  0
  6  1  1  0
  7  6  1  0
  6  8  1  0
  8  9  1  0
  9 10  1  0
  9 11  2  0
 10 12  1  0
 12 13  1  0
 13 14  2  0
 15 13  1  0
 14 16  1  0
 14 17  1  0
 18 15  2  0
 16 19  1  0
 16 20  2  0
 17 21  2  0
 21 18  1  0
  4 22  2  0
  4 23  1  0
 24 23  1  0
 24 25  1  0
 25 26  1  0
 25 27  1  0
 26 28  1  0
 27 29  1  0
 27 30  1  0
 30 28  1  0
 28 31  1  0
 30 32  1  0
 33 31  1  0
 34 31  1  0
 35 33  2  0
 33 36  1  0
 37 34  2  0
 38 35  1  0
 36 39  2  0
 36 37  1  0
 40 38  2  0
 40 39  1  0
 39 41  1  0
  6 42  1  6
  7 43  1  0
  7 44  1  0
  8 45  1  0
  8 46  1  0
 12 47  1  0
 12 48  1  0
 15 49  1  0
 17 50  1  0
 18 51  1  0
 21 52  1  0
 24 53  1  0
 24 54  1  0
 25 55  1  0
 27 56  1  0
 28 57  1  0
 29 58  1  0
 30 59  1  0
 32 60  1  0
 34 61  1  0
 38 62  1  0
 41 63  1  0
 41 64  1  0
M  CHG  3   5  -1  16   1  19  -1
M  END
>  <EmbedRMS>  (284) 
0.08950209013958342

$$$$

     RDKit          3D

 64 67  0  0  0  0  0  0  0  0999 V2000
   10.2828   43.7755   33.8076 C   0  0  0  0  0  0  0  0  0  0  0  0
   11.4085   43.5916   34.3577 O   0  0  0  0  0  0  0  0  0  0  0  0
    9.3666   42.7319   33.7016 O   0  0  0  0  0  0  0  0  0  0  0  0
    9.8861   41.2348   34.2846 P   0  0  0  0  0  5  0  0  0  0  0  0
   10.3662   41.4697   35.8751 O   0  0  0  0  0  1  0  0  0  0  0  0
    9.9534   45.1115   33.2434 C   0  0  2  0  0  0  0  0  0  0  0  0
   11.0727   46.0266   33.4849 N   0  0  0  0  0  0  0  0  0  0  0  0
    8.6386   45.6427   33.8533 C   0  0  0  0  0  0  0  0  0  0  0  0
    8.2404   46.9464   33.2363 C   0  0  0  0  0  0  0  0  0  0  0  0
    8.5751   48.1409   33.8827 O   0  0  0  0  0  0  0  0  0  0  0  0
    7.6450   46.9568   32.1247 O   0  0  0  0  0  0  0  0  0  0  0  0
    8.4422   49.4267   33.2811 C   0  0  0  0  0  0  0  0  0  0  0  0
    9.5190   49.6357   32.2433 C   0  0  0  0  0  0  0  0  0  0  0  0
   10.8464   50.0047   32.5918 C   0  0  0  0  0  0  0  0  0  0  0  0
    9.1882   49.4608   30.8871 C   0  0  0  0  0  0  0  0  0  0  0  0
   11.2523   50.1872   33.9610 N   0  0  0  0  0  4  0  0  0  0  0  0
   11.7886   50.2142   31.5676 C   0  0  0  0  0  0  0  0  0  0  0  0
   10.1424   49.6593   29.8890 C   0  0  0  0  0  0  0  0  0  0  0  0
   10.8146   49.3325   34.9454 O   0  0  0  0  0  1  0  0  0  0  0  0
   12.1371   51.0214   34.2440 O   0  0  0  0  0  0  0  0  0  0  0  0
   11.4391   50.0385   30.2282 C   0  0  0  0  0  0  0  0  0  0  0  0
    8.8089   40.1914   34.2082 O   0  0  0  0  0  0  0  0  0  0  0  0
   11.2386   40.7916   33.3693 O   0  0  0  0  0  0  0  0  0  0  0  0
   10.9187   40.6907   31.9960 C   0  0  0  0  0  0  0  0  0  0  0  0
   11.5175   39.3824   31.4412 C   0  0  0  0  0  0  0  0  0  0  0  0
   12.7494   39.0893   32.0757 O   0  0  0  0  0  0  0  0  0  0  0  0
   10.6036   38.1900   31.6660 C   0  0  0  0  0  0  0  0  0  0  0  0
   12.9401   37.6834   32.0276 C   0  0  0  0  0  0  0  0  0  0  0  0
    9.6376   38.0785   30.6474 O   0  0  0  0  0  0  0  0  0  0  0  0
   11.5803   37.0204   31.6937 C   0  0  0  0  0  0  0  0  0  0  0  0
   13.4902   37.2177   33.3237 N   0  0  0  0  0  0  0  0  0  0  0  0
   11.6118   36.3193   30.4680 O   0  0  0  0  0  0  0  0  0  0  0  0
   14.4759   36.3271   33.5731 C   0  0  0  0  0  0  0  0  0  0  0  0
   13.1176   37.6317   34.5688 C   0  0  0  0  0  0  0  0  0  0  0  0
   15.2064   35.6141   32.6742 N   0  0  0  0  0  0  0  0  0  0  0  0
   14.6729   36.2274   34.9184 C   0  0  0  0  0  0  0  0  0  0  0  0
   13.8221   37.0457   35.5783 N   0  0  0  0  0  0  0  0  0  0  0  0
   16.1637   34.7597   33.1549 C   0  0  0  0  0  0  0  0  0  0  0  0
   15.6514   35.3493   35.4133 C   0  0  0  0  0  0  0  0  0  0  0  0
   16.3791   34.6312   34.5044 N   0  0  0  0  0  0  0  0  0  0  0  0
   15.9001   35.1935   36.8091 N   0  0  0  0  0  0  0  0  0  0  0  0
    9.8210   44.9852   32.1455 H   0  0  0  0  0  0  0  0  0  0  0  0
   11.0692   46.3365   34.4846 H   0  0  0  0  0  0  0  0  0  0  0  0
   10.9516   46.8779   32.8897 H   0  0  0  0  0  0  0  0  0  0  0  0
    7.8201   44.9090   33.6843 H   0  0  0  0  0  0  0  0  0  0  0  0
    8.7508   45.7737   34.9519 H   0  0  0  0  0  0  0  0  0  0  0  0
    7.4263   49.5359   32.8413 H   0  0  0  0  0  0  0  0  0  0  0  0
    8.5253   50.2058   34.0673 H   0  0  0  0  0  0  0  0  0  0  0  0
    8.1837   49.1778   30.5980 H   0  0  0  0  0  0  0  0  0  0  0  0
   12.8049   50.4991   31.8088 H   0  0  0  0  0  0  0  0  0  0  0  0
    9.8739   49.5233   28.8493 H   0  0  0  0  0  0  0  0  0  0  0  0
   12.1769   50.1949   29.4518 H   0  0  0  0  0  0  0  0  0  0  0  0
   11.3992   41.5455   31.4737 H   0  0  0  0  0  0  0  0  0  0  0  0
    9.8307   40.7396   31.7563 H   0  0  0  0  0  0  0  0  0  0  0  0
   11.6989   39.5091   30.3489 H   0  0  0  0  0  0  0  0  0  0  0  0
   10.1130   38.2589   32.6664 H   0  0  0  0  0  0  0  0  0  0  0  0
   13.6800   37.4628   31.2265 H   0  0  0  0  0  0  0  0  0  0  0  0
    8.8952   38.6908   30.8891 H   0  0  0  0  0  0  0  0  0  0  0  0
   11.2830   36.3060   32.4929 H   0  0  0  0  0  0  0  0  0  0  0  0
   11.8859   36.9589   29.7593 H   0  0  0  0  0  0  0  0  0  0  0  0
   12.3360   38.3600   34.7442 H   0  0  0  0  0  0  0  0  0  0  0  0
   16.7572   34.1793   32.4621 H   0  0  0  0  0  0  0  0  0  0  0  0
   16.6362   34.5318   37.1416 H   0  0  0  0  0  0  0  0  0  0  0  0
   15.3528   35.7356   37.5140 H   0  0  0  0  0  0  0  0  0  0  0  0
  1  2  2  0
  1  3  1  0
  3  4  1  0
  4  5  1  0
  6  1  1  0
  7  6  1  0
  6  8  1  0
  8  9  1  0
  9 10  1  0
  9 11  2  0
 10 12  1  0
 12 13  1  0
 13 14  2  0
 15 13  1  0
 14 16  1  0
 14 17  1  0
 18 15  2  0
 16 19  1  0
 16 20  2  0
 17 21  2  0
 21 18  1  0
  4 22  2  0
  4 23  1  0
 24 23  1  0
 24 25  1  0
 25 26  1  0
 25 27  1  0
 26 28  1  0
 27 29  1  0
 27 30  1  0
 30 28  1  0
 28 31  1  0
 30 32  1  0
 33 31  1  0
 34 31  1  0
 35 33  2  0
 33 36  1  0
 37 34  2  0
 38 35  1  0
 36 39  2  0
 36 37  1  0
 40 38  2  0
 40 39  1  0
 39 41  1  0
  6 42  1  6
  7 43  1  0
  7 44  1  0
  8 45  1  0
  8 46  1  0
 12 47  1  0
 12 48  1  0
 15 49  1  0
 17 50  1  0
 18 51  1  0
 21 52  1  0
 24 53  1  0
 24 54  1  0
 25 55  1  0
 27 56  1  0
 28 57  1  0
 29 58  1  0
 30 59  1  0
 32 60  1  0
 34 61  1  0
 38 62  1  0
 41 63  1  0
 41 64  1  0
M  CHG  3   5  -1  16   1  19  -1
M  END
>  <EmbedRMS>  (285) 
0.08801656332920807

$$$$

     RDKit          3D

 64 67  0  0  0  0  0  0  0  0999 V2000
   10.2859   43.7721   33.8048 C   0  0  0  0  0  0  0  0  0  0  0  0
   11.4084   43.5885   34.3611 O   0  0  0  0  0  0  0  0  0  0  0  0
    9.3672   42.7311   33.6995 O   0  0  0  0  0  0  0  0  0  0  0  0
    9.8850   41.2344   34.2844 P   0  0  0  0  0  5  0  0  0  0  0  0
   10.3655   41.4703   35.8749 O   0  0  0  0  0  1  0  0  0  0  0  0
    9.9529   45.1149   33.2533 C   0  0  2  0  0  0  0  0  0  0  0  0
   11.0715   46.0331   33.4765 N   0  0  0  0  0  0  0  0  0  0  0  0
    8.6602   45.6659   33.8889 C   0  0  0  0  0  0  0  0  0  0  0  0
    8.7919   45.8600   35.3704 C   0  0  0  0  0  0  0  0  0  0  0  0
    9.4249   47.0058   35.8589 O   0  0  0  0  0  0  0  0  0  0  0  0
    8.3649   44.9739   36.1602 O   0  0  0  0  0  0  0  0  0  0  0  0
    9.6269   47.2394   37.2480 C   0  0  0  0  0  0  0  0  0  0  0  0
   10.3502   48.5469   37.4335 C   0  0  0  0  0  0  0  0  0  0  0  0
    9.6641   49.7872   37.5171 C   0  0  0  0  0  0  0  0  0  0  0  0
   11.7540   48.5296   37.5178 C   0  0  0  0  0  0  0  0  0  0  0  0
    8.2345   49.8741   37.3770 N   0  0  0  0  0  4  0  0  0  0  0  0
   10.4031   50.9633   37.7429 C   0  0  0  0  0  0  0  0  0  0  0  0
   12.4692   49.7099   37.7244 C   0  0  0  0  0  0  0  0  0  0  0  0
    7.5780   49.1260   36.4275 O   0  0  0  0  0  1  0  0  0  0  0  0
    7.5984   50.7560   37.9904 O   0  0  0  0  0  0  0  0  0  0  0  0
   11.7945   50.9233   37.8448 C   0  0  0  0  0  0  0  0  0  0  0  0
    8.8077   40.1913   34.2087 O   0  0  0  0  0  0  0  0  0  0  0  0
   11.2369   40.7903   33.3690 O   0  0  0  0  0  0  0  0  0  0  0  0
   10.9155   40.6897   31.9960 C   0  0  0  0  0  0  0  0  0  0  0  0
   11.5270   39.3898   31.4374 C   0  0  0  0  0  0  0  0  0  0  0  0
   12.7508   39.0916   32.0838 O   0  0  0  0  0  0  0  0  0  0  0  0
   10.6122   38.1916   31.6452 C   0  0  0  0  0  0  0  0  0  0  0  0
   12.9429   37.6852   32.0295 C   0  0  0  0  0  0  0  0  0  0  0  0
    9.6070   38.0858   30.6603 O   0  0  0  0  0  0  0  0  0  0  0  0
   11.5845   37.0186   31.6879 C   0  0  0  0  0  0  0  0  0  0  0  0
   13.4899   37.2163   33.3250 N   0  0  0  0  0  0  0  0  0  0  0  0
   11.6201   36.3062   30.4693 O   0  0  0  0  0  0  0  0  0  0  0  0
   14.4759   36.3263   33.5738 C   0  0  0  0  0  0  0  0  0  0  0  0
   13.1176   37.6307   34.5699 C   0  0  0  0  0  0  0  0  0  0  0  0
   15.2065   35.6139   32.6746 N   0  0  0  0  0  0  0  0  0  0  0  0
   14.6731   36.2267   34.9191 C   0  0  0  0  0  0  0  0  0  0  0  0
   13.8224   37.0450   35.5792 N   0  0  0  0  0  0  0  0  0  0  0  0
   16.1640   34.7596   33.1551 C   0  0  0  0  0  0  0  0  0  0  0  0
   15.6517   35.3489   35.4136 C   0  0  0  0  0  0  0  0  0  0  0  0
   16.3795   34.6310   34.5046 N   0  0  0  0  0  0  0  0  0  0  0  0
   15.9006   35.1931   36.8094 N   0  0  0  0  0  0  0  0  0  0  0  0
    9.7833   45.0053   32.1585 H   0  0  0  0  0  0  0  0  0  0  0  0
   11.8826   45.7127   32.8977 H   0  0  0  0  0  0  0  0  0  0  0  0
   10.8103   46.9720   33.0959 H   0  0  0  0  0  0  0  0  0  0  0  0
    7.8131   44.9772   33.6758 H   0  0  0  0  0  0  0  0  0  0  0  0
    8.4066   46.6418   33.4217 H   0  0  0  0  0  0  0  0  0  0  0  0
    8.6532   47.2515   37.7830 H   0  0  0  0  0  0  0  0  0  0  0  0
   10.2234   46.4052   37.6793 H   0  0  0  0  0  0  0  0  0  0  0  0
   12.2975   47.5962   37.4338 H   0  0  0  0  0  0  0  0  0  0  0  0
    9.9007   51.9195   37.8184 H   0  0  0  0  0  0  0  0  0  0  0  0
   13.5489   49.6826   37.7955 H   0  0  0  0  0  0  0  0  0  0  0  0
   12.3512   51.8370   38.0083 H   0  0  0  0  0  0  0  0  0  0  0  0
   11.3825   41.5526   31.4746 H   0  0  0  0  0  0  0  0  0  0  0  0
    9.8254   40.7190   31.7587 H   0  0  0  0  0  0  0  0  0  0  0  0
   11.7318   39.5338   30.3520 H   0  0  0  0  0  0  0  0  0  0  0  0
   10.1215   38.2682   32.6413 H   0  0  0  0  0  0  0  0  0  0  0  0
   13.6882   37.4708   31.2319 H   0  0  0  0  0  0  0  0  0  0  0  0
   10.0257   38.1751   29.7656 H   0  0  0  0  0  0  0  0  0  0  0  0
   11.2796   36.3123   32.4915 H   0  0  0  0  0  0  0  0  0  0  0  0
   11.9872   36.9099   29.7714 H   0  0  0  0  0  0  0  0  0  0  0  0
   12.3365   38.3595   34.7453 H   0  0  0  0  0  0  0  0  0  0  0  0
   16.7577   34.1794   32.4622 H   0  0  0  0  0  0  0  0  0  0  0  0
   16.6368   34.5316   37.1418 H   0  0  0  0  0  0  0  0  0  0  0  0
   15.3532   35.7351   37.5143 H   0  0  0  0  0  0  0  0  0  0  0  0
  1  2  2  0
  1  3  1  0
  3  4  1  0
  4  5  1  0
  6  1  1  0
  7  6  1  0
  6  8  1  0
  8  9  1  0
  9 10  1  0
  9 11  2  0
 10 12  1  0
 12 13  1  0
 13 14  2  0
 15 13  1  0
 14 16  1  0
 14 17  1  0
 18 15  2  0
 16 19  1  0
 16 20  2  0
 17 21  2  0
 21 18  1  0
  4 22  2  0
  4 23  1  0
 24 23  1  0
 24 25  1  0
 25 26  1  0
 25 27  1  0
 26 28  1  0
 27 29  1  0
 27 30  1  0
 30 28  1  0
 28 31  1  0
 30 32  1  0
 33 31  1  0
 34 31  1  0
 35 33  2  0
 33 36  1  0
 37 34  2  0
 38 35  1  0
 36 39  2  0
 36 37  1  0
 40 38  2  0
 40 39  1  0
 39 41  1  0
  6 42  1  6
  7 43  1  0
  7 44  1  0
  8 45  1  0
  8 46  1  0
 12 47  1  0
 12 48  1  0
 15 49  1  0
 17 50  1  0
 18 51  1  0
 21 52  1  0
 24 53  1  0
 24 54  1  0
 25 55  1  0
 27 56  1  0
 28 57  1  0
 29 58  1  0
 30 59  1  0
 32 60  1  0
 34 61  1  0
 38 62  1  0
 41 63  1  0
 41 64  1  0
M  CHG  3   5  -1  16   1  19  -1
M  END
>  <EmbedRMS>  (286) 
0.08700251400310509

$$$$

     RDKit          3D

 64 67  0  0  0  0  0  0  0  0999 V2000
   10.2871   43.7712   33.8022 C   0  0  0  0  0  0  0  0  0  0  0  0
   11.4094   43.5877   34.3592 O   0  0  0  0  0  0  0  0  0  0  0  0
    9.3678   42.7307   33.6982 O   0  0  0  0  0  0  0  0  0  0  0  0
    9.8849   41.2345   34.2847 P   0  0  0  0  0  5  0  0  0  0  0  0
   10.3649   41.4714   35.8752 O   0  0  0  0  0  1  0  0  0  0  0  0
    9.9519   45.1156   33.2557 C   0  0  2  0  0  0  0  0  0  0  0  0
   11.0708   46.0334   33.4777 N   0  0  0  0  0  0  0  0  0  0  0  0
    8.6626   45.6649   33.8998 C   0  0  0  0  0  0  0  0  0  0  0  0
    8.7966   45.8345   35.3841 C   0  0  0  0  0  0  0  0  0  0  0  0
    8.5477   44.7429   36.2234 O   0  0  0  0  0  0  0  0  0  0  0  0
    9.1681   46.9425   35.8574 O   0  0  0  0  0  0  0  0  0  0  0  0
    8.6928   44.7891   37.6417 C   0  0  0  0  0  0  0  0  0  0  0  0
    7.6238   45.6577   38.2649 C   0  0  0  0  0  0  0  0  0  0  0  0
    7.9153   46.6684   39.2177 C   0  0  0  0  0  0  0  0  0  0  0  0
    6.2806   45.3756   37.9559 C   0  0  0  0  0  0  0  0  0  0  0  0
    9.2640   47.0079   39.5719 N   0  0  0  0  0  4  0  0  0  0  0  0
    6.8573   47.3585   39.8346 C   0  0  0  0  0  0  0  0  0  0  0  0
    5.2441   46.0836   38.5660 C   0  0  0  0  0  0  0  0  0  0  0  0
   10.1550   47.3888   38.5959 O   0  0  0  0  0  1  0  0  0  0  0  0
    9.5594   47.2084   40.7680 O   0  0  0  0  0  0  0  0  0  0  0  0
    5.5318   47.0712   39.5061 C   0  0  0  0  0  0  0  0  0  0  0  0
    8.8074   40.1916   34.2092 O   0  0  0  0  0  0  0  0  0  0  0  0
   11.2367   40.7898   33.3695 O   0  0  0  0  0  0  0  0  0  0  0  0
   10.9156   40.6897   31.9963 C   0  0  0  0  0  0  0  0  0  0  0  0
   11.5270   39.3898   31.4375 C   0  0  0  0  0  0  0  0  0  0  0  0
   12.7508   39.0916   32.0838 O   0  0  0  0  0  0  0  0  0  0  0  0
   10.6122   38.1916   31.6452 C   0  0  0  0  0  0  0  0  0  0  0  0
   12.9429   37.6852   32.0295 C   0  0  0  0  0  0  0  0  0  0  0  0
    9.6070   38.0858   30.6603 O   0  0  0  0  0  0  0  0  0  0  0  0
   11.5845   37.0186   31.6880 C   0  0  0  0  0  0  0  0  0  0  0  0
   13.4899   37.2163   33.3250 N   0  0  0  0  0  0  0  0  0  0  0  0
   11.6201   36.3063   30.4693 O   0  0  0  0  0  0  0  0  0  0  0  0
   14.4759   36.3263   33.5739 C   0  0  0  0  0  0  0  0  0  0  0  0
   13.1176   37.6307   34.5699 C   0  0  0  0  0  0  0  0  0  0  0  0
   15.2065   35.6139   32.6746 N   0  0  0  0  0  0  0  0  0  0  0  0
   14.6731   36.2267   34.9191 C   0  0  0  0  0  0  0  0  0  0  0  0
   13.8224   37.0450   35.5792 N   0  0  0  0  0  0  0  0  0  0  0  0
   16.1640   34.7596   33.1551 C   0  0  0  0  0  0  0  0  0  0  0  0
   15.6517   35.3489   35.4136 C   0  0  0  0  0  0  0  0  0  0  0  0
   16.3795   34.6310   34.5046 N   0  0  0  0  0  0  0  0  0  0  0  0
   15.9006   35.1931   36.8094 N   0  0  0  0  0  0  0  0  0  0  0  0
    9.7774   45.0098   32.1613 H   0  0  0  0  0  0  0  0  0  0  0  0
   11.8805   45.7137   32.8965 H   0  0  0  0  0  0  0  0  0  0  0  0
   10.8086   46.9725   33.0986 H   0  0  0  0  0  0  0  0  0  0  0  0
    7.8156   44.9764   33.6893 H   0  0  0  0  0  0  0  0  0  0  0  0
    8.4049   46.6429   33.4378 H   0  0  0  0  0  0  0  0  0  0  0  0
    8.5742   43.7584   38.0370 H   0  0  0  0  0  0  0  0  0  0  0  0
    9.7225   45.1049   37.8969 H   0  0  0  0  0  0  0  0  0  0  0  0
    6.0349   44.5946   37.2465 H   0  0  0  0  0  0  0  0  0  0  0  0
    7.0631   48.1331   40.5628 H   0  0  0  0  0  0  0  0  0  0  0  0
    4.2152   45.8579   38.3169 H   0  0  0  0  0  0  0  0  0  0  0  0
    4.7263   47.6152   39.9824 H   0  0  0  0  0  0  0  0  0  0  0  0
    9.8255   40.7191   31.7589 H   0  0  0  0  0  0  0  0  0  0  0  0
   11.3828   41.5526   31.4753 H   0  0  0  0  0  0  0  0  0  0  0  0
   11.7318   39.5340   30.3521 H   0  0  0  0  0  0  0  0  0  0  0  0
   10.1214   38.2681   32.6413 H   0  0  0  0  0  0  0  0  0  0  0  0
   13.6882   37.4707   31.2319 H   0  0  0  0  0  0  0  0  0  0  0  0
   10.0257   38.1752   29.7656 H   0  0  0  0  0  0  0  0  0  0  0  0
   11.2796   36.3123   32.4915 H   0  0  0  0  0  0  0  0  0  0  0  0
   11.9872   36.9099   29.7715 H   0  0  0  0  0  0  0  0  0  0  0  0
   12.3365   38.3596   34.7453 H   0  0  0  0  0  0  0  0  0  0  0  0
   16.7577   34.1794   32.4622 H   0  0  0  0  0  0  0  0  0  0  0  0
   16.6368   34.5316   37.1418 H   0  0  0  0  0  0  0  0  0  0  0  0
   15.3532   35.7351   37.5144 H   0  0  0  0  0  0  0  0  0  0  0  0
  1  2  2  0
  1  3  1  0
  3  4  1  0
  4  5  1  0
  6  1  1  0
  7  6  1  0
  6  8  1  0
  8  9  1  0
  9 10  1  0
  9 11  2  0
 10 12  1  0
 12 13  1  0
 13 14  2  0
 15 13  1  0
 14 16  1  0
 14 17  1  0
 18 15  2  0
 16 19  1  0
 16 20  2  0
 17 21  2  0
 21 18  1  0
  4 22  2  0
  4 23  1  0
 24 23  1  0
 24 25  1  0
 25 26  1  0
 25 27  1  0
 26 28  1  0
 27 29  1  0
 27 30  1  0
 30 28  1  0
 28 31  1  0
 30 32  1  0
 33 31  1  0
 34 31  1  0
 35 33  2  0
 33 36  1  0
 37 34  2  0
 38 35  1  0
 36 39  2  0
 36 37  1  0
 40 38  2  0
 40 39  1  0
 39 41  1  0
  6 42  1  6
  7 43  1  0
  7 44  1  0
  8 45  1  0
  8 46  1  0
 12 47  1  0
 12 48  1  0
 15 49  1  0
 17 50  1  0
 18 51  1  0
 21 52  1  0
 24 53  1  0
 24 54  1  0
 25 55  1  0
 27 56  1  0
 28 57  1  0
 29 58  1  0
 30 59  1  0
 32 60  1  0
 34 61  1  0
 38 62  1  0
 41 63  1  0
 41 64  1  0
M  CHG  3   5  -1  16   1  19  -1
M  END
>  <EmbedRMS>  (287) 
0.08701190594398696

$$$$

     RDKit          3D

 64 67  0  0  0  0  0  0  0  0999 V2000
   10.2806   43.7764   33.8060 C   0  0  0  0  0  0  0  0  0  0  0  0
   11.4066   43.5925   34.3560 O   0  0  0  0  0  0  0  0  0  0  0  0
    9.3695   42.7300   33.6998 O   0  0  0  0  0  0  0  0  0  0  0  0
    9.8868   41.2343   34.2854 P   0  0  0  0  0  5  0  0  0  0  0  0
   10.3674   41.4709   35.8754 O   0  0  0  0  0  1  0  0  0  0  0  0
    9.9516   45.1186   33.2431 C   0  0  2  0  0  0  0  0  0  0  0  0
   11.0747   46.0255   33.4882 N   0  0  0  0  0  0  0  0  0  0  0  0
    8.6460   45.6909   33.8509 C   0  0  0  0  0  0  0  0  0  0  0  0
    7.4292   45.2371   33.0993 C   0  0  0  0  0  0  0  0  0  0  0  0
    7.0071   43.9107   33.2056 O   0  0  0  0  0  0  0  0  0  0  0  0
    6.8118   46.0491   32.3573 O   0  0  0  0  0  0  0  0  0  0  0  0
    5.8801   43.3921   32.5095 C   0  0  0  0  0  0  0  0  0  0  0  0
    5.9006   41.8892   32.5985 C   0  0  0  0  0  0  0  0  0  0  0  0
    6.6253   41.0829   31.6782 C   0  0  0  0  0  0  0  0  0  0  0  0
    5.1973   41.2722   33.6482 C   0  0  0  0  0  0  0  0  0  0  0  0
    7.4178   41.6514   30.6187 N   0  0  0  0  0  4  0  0  0  0  0  0
    6.5645   39.6834   31.8033 C   0  0  0  0  0  0  0  0  0  0  0  0
    5.1697   39.8822   33.7662 C   0  0  0  0  0  0  0  0  0  0  0  0
    7.6240   40.9397   29.4591 O   0  0  0  0  0  1  0  0  0  0  0  0
    8.0787   42.6936   30.8049 O   0  0  0  0  0  0  0  0  0  0  0  0
    5.8449   39.0893   32.8406 C   0  0  0  0  0  0  0  0  0  0  0  0
    8.8093   40.1915   34.2111 O   0  0  0  0  0  0  0  0  0  0  0  0
   11.2376   40.7902   33.3689 O   0  0  0  0  0  0  0  0  0  0  0  0
   10.9133   40.6878   31.9969 C   0  0  0  0  0  0  0  0  0  0  0  0
   11.5266   39.3896   31.4375 C   0  0  0  0  0  0  0  0  0  0  0  0
   12.7503   39.0917   32.0842 O   0  0  0  0  0  0  0  0  0  0  0  0
   10.6118   38.1911   31.6444 C   0  0  0  0  0  0  0  0  0  0  0  0
   12.9426   37.6854   32.0296 C   0  0  0  0  0  0  0  0  0  0  0  0
    9.6085   38.0844   30.6580 O   0  0  0  0  0  0  0  0  0  0  0  0
   11.5843   37.0185   31.6880 C   0  0  0  0  0  0  0  0  0  0  0  0
   13.4897   37.2163   33.3250 N   0  0  0  0  0  0  0  0  0  0  0  0
   11.6202   36.3060   30.4694 O   0  0  0  0  0  0  0  0  0  0  0  0
   14.4758   36.3264   33.5738 C   0  0  0  0  0  0  0  0  0  0  0  0
   13.1174   37.6307   34.5699 C   0  0  0  0  0  0  0  0  0  0  0  0
   15.2064   35.6139   32.6746 N   0  0  0  0  0  0  0  0  0  0  0  0
   14.6731   36.2268   34.9190 C   0  0  0  0  0  0  0  0  0  0  0  0
   13.8223   37.0450   35.5792 N   0  0  0  0  0  0  0  0  0  0  0  0
   16.1640   34.7596   33.1551 C   0  0  0  0  0  0  0  0  0  0  0  0
   15.6517   35.3489   35.4136 C   0  0  0  0  0  0  0  0  0  0  0  0
   16.3795   34.6310   34.5045 N   0  0  0  0  0  0  0  0  0  0  0  0
   15.9006   35.1931   36.8094 N   0  0  0  0  0  0  0  0  0  0  0  0
    9.8354   45.0055   32.1415 H   0  0  0  0  0  0  0  0  0  0  0  0
   10.9205   46.9045   32.9422 H   0  0  0  0  0  0  0  0  0  0  0  0
   11.0979   46.2883   34.5016 H   0  0  0  0  0  0  0  0  0  0  0  0
    8.6747   46.8027   33.8249 H   0  0  0  0  0  0  0  0  0  0  0  0
    8.5497   45.3978   34.9193 H   0  0  0  0  0  0  0  0  0  0  0  0
    5.8896   43.7148   31.4463 H   0  0  0  0  0  0  0  0  0  0  0  0
    4.9507   43.8011   32.9623 H   0  0  0  0  0  0  0  0  0  0  0  0
    4.6610   41.8698   34.3753 H   0  0  0  0  0  0  0  0  0  0  0  0
    7.0958   39.0477   31.1077 H   0  0  0  0  0  0  0  0  0  0  0  0
    4.6197   39.4189   34.5751 H   0  0  0  0  0  0  0  0  0  0  0  0
    5.8189   38.0111   32.9320 H   0  0  0  0  0  0  0  0  0  0  0  0
    9.8232   40.7079   31.7647 H   0  0  0  0  0  0  0  0  0  0  0  0
   11.3729   41.5529   31.4729 H   0  0  0  0  0  0  0  0  0  0  0  0
   11.7317   39.5350   30.3524 H   0  0  0  0  0  0  0  0  0  0  0  0
   10.1189   38.2676   32.6395 H   0  0  0  0  0  0  0  0  0  0  0  0
   13.6879   37.4711   31.2319 H   0  0  0  0  0  0  0  0  0  0  0  0
   10.0267   38.1811   29.7640 H   0  0  0  0  0  0  0  0  0  0  0  0
   11.2791   36.3126   32.4917 H   0  0  0  0  0  0  0  0  0  0  0  0
   11.9861   36.9100   29.7713 H   0  0  0  0  0  0  0  0  0  0  0  0
   12.3363   38.3594   34.7454 H   0  0  0  0  0  0  0  0  0  0  0  0
   16.7576   34.1795   32.4622 H   0  0  0  0  0  0  0  0  0  0  0  0
   15.3532   35.7351   37.5143 H   0  0  0  0  0  0  0  0  0  0  0  0
   16.6368   34.5316   37.1418 H   0  0  0  0  0  0  0  0  0  0  0  0
  1  2  2  0
  1  3  1  0
  3  4  1  0
  4  5  1  0
  6  1  1  0
  7  6  1  0
  6  8  1  0
  8  9  1  0
  9 10  1  0
  9 11  2  0
 10 12  1  0
 12 13  1  0
 13 14  2  0
 15 13  1  0
 14 16  1  0
 14 17  1  0
 18 15  2  0
 16 19  1  0
 16 20  2  0
 17 21  2  0
 21 18  1  0
  4 22  2  0
  4 23  1  0
 24 23  1  0
 24 25  1  0
 25 26  1  0
 25 27  1  0
 26 28  1  0
 27 29  1  0
 27 30  1  0
 30 28  1  0
 28 31  1  0
 30 32  1  0
 33 31  1  0
 34 31  1  0
 35 33  2  0
 33 36  1  0
 37 34  2  0
 38 35  1  0
 36 39  2  0
 36 37  1  0
 40 38  2  0
 40 39  1  0
 39 41  1  0
  6 42  1  6
  7 43  1  0
  7 44  1  0
  8 45  1  0
  8 46  1  0
 12 47  1  0
 12 48  1  0
 15 49  1  0
 17 50  1  0
 18 51  1  0
 21 52  1  0
 24 53  1  0
 24 54  1  0
 25 55  1  0
 27 56  1  0
 28 57  1  0
 29 58  1  0
 30 59  1  0
 32 60  1  0
 34 61  1  0
 38 62  1  0
 41 63  1  0
 41 64  1  0
M  CHG  3   5  -1  16   1  19  -1
M  END
>  <EmbedRMS>  (288) 
0.08702889915030945

$$$$

     RDKit          3D

 64 67  0  0  0  0  0  0  0  0999 V2000
   10.2860   43.7721   33.8047 C   0  0  0  0  0  0  0  0  0  0  0  0
   11.4085   43.5885   34.3610 O   0  0  0  0  0  0  0  0  0  0  0  0
    9.3673   42.7311   33.6995 O   0  0  0  0  0  0  0  0  0  0  0  0
    9.8853   41.2343   34.2839 P   0  0  0  0  0  5  0  0  0  0  0  0
   10.3661   41.4700   35.8743 O   0  0  0  0  0  1  0  0  0  0  0  0
    9.9530   45.1149   33.2534 C   0  0  2  0  0  0  0  0  0  0  0  0
   11.0712   46.0333   33.4766 N   0  0  0  0  0  0  0  0  0  0  0  0
    8.6604   45.6660   33.8889 C   0  0  0  0  0  0  0  0  0  0  0  0
    8.7937   45.8674   35.3691 C   0  0  0  0  0  0  0  0  0  0  0  0
    9.3510   47.0558   35.8548 O   0  0  0  0  0  0  0  0  0  0  0  0
    8.4345   44.9533   36.1609 O   0  0  0  0  0  0  0  0  0  0  0  0
    9.5269   47.3233   37.2460 C   0  0  0  0  0  0  0  0  0  0  0  0
    8.2019   47.5548   37.9426 C   0  0  0  0  0  0  0  0  0  0  0  0
    7.9977   47.1922   39.3010 C   0  0  0  0  0  0  0  0  0  0  0  0
    7.1505   48.1692   37.2346 C   0  0  0  0  0  0  0  0  0  0  0  0
    9.0595   46.6647   40.1140 N   0  0  0  0  0  4  0  0  0  0  0  0
    6.7267   47.3675   39.8754 C   0  0  0  0  0  0  0  0  0  0  0  0
    5.9019   48.3531   37.8300 C   0  0  0  0  0  0  0  0  0  0  0  0
    8.7758   45.7556   41.1072 O   0  0  0  0  0  1  0  0  0  0  0  0
   10.1978   47.1753   40.0739 O   0  0  0  0  0  0  0  0  0  0  0  0
    5.6867   47.9415   39.1435 C   0  0  0  0  0  0  0  0  0  0  0  0
    8.8077   40.1915   34.2086 O   0  0  0  0  0  0  0  0  0  0  0  0
   11.2368   40.7908   33.3672 O   0  0  0  0  0  0  0  0  0  0  0  0
   10.9136   40.6860   31.9946 C   0  0  0  0  0  0  0  0  0  0  0  0
   11.5170   39.3797   31.4409 C   0  0  0  0  0  0  0  0  0  0  0  0
   12.7488   39.0886   32.0762 O   0  0  0  0  0  0  0  0  0  0  0  0
   10.6051   38.1876   31.6659 C   0  0  0  0  0  0  0  0  0  0  0  0
   12.9412   37.6828   32.0278 C   0  0  0  0  0  0  0  0  0  0  0  0
    9.6359   38.0930   30.6503 O   0  0  0  0  0  0  0  0  0  0  0  0
   11.5827   37.0179   31.6936 C   0  0  0  0  0  0  0  0  0  0  0  0
   13.4909   37.2176   33.3239 N   0  0  0  0  0  0  0  0  0  0  0  0
   11.6140   36.3180   30.4675 O   0  0  0  0  0  0  0  0  0  0  0  0
   14.4763   36.3270   33.5733 C   0  0  0  0  0  0  0  0  0  0  0  0
   13.1179   37.6316   34.5689 C   0  0  0  0  0  0  0  0  0  0  0  0
   15.2067   35.6140   32.6743 N   0  0  0  0  0  0  0  0  0  0  0  0
   14.6731   36.2272   34.9186 C   0  0  0  0  0  0  0  0  0  0  0  0
   13.8223   37.0456   35.5785 N   0  0  0  0  0  0  0  0  0  0  0  0
   16.1639   34.7595   33.1551 C   0  0  0  0  0  0  0  0  0  0  0  0
   15.6515   35.3491   35.4134 C   0  0  0  0  0  0  0  0  0  0  0  0
   16.3793   34.6310   34.5045 N   0  0  0  0  0  0  0  0  0  0  0  0
   15.9002   35.1933   36.8093 N   0  0  0  0  0  0  0  0  0  0  0  0
    9.7833   45.0053   32.1586 H   0  0  0  0  0  0  0  0  0  0  0  0
   10.8100   46.9716   33.0948 H   0  0  0  0  0  0  0  0  0  0  0  0
   11.8827   45.7125   32.8984 H   0  0  0  0  0  0  0  0  0  0  0  0
    8.4033   46.6387   33.4168 H   0  0  0  0  0  0  0  0  0  0  0  0
    7.8142   44.9746   33.6817 H   0  0  0  0  0  0  0  0  0  0  0  0
   10.1486   48.2359   37.3566 H   0  0  0  0  0  0  0  0  0  0  0  0
   10.0783   46.4707   37.6959 H   0  0  0  0  0  0  0  0  0  0  0  0
    7.2900   48.4952   36.2115 H   0  0  0  0  0  0  0  0  0  0  0  0
    6.5481   47.0848   40.9052 H   0  0  0  0  0  0  0  0  0  0  0  0
    5.0981   48.8130   37.2696 H   0  0  0  0  0  0  0  0  0  0  0  0
    4.7163   48.0822   39.6018 H   0  0  0  0  0  0  0  0  0  0  0  0
    9.8235   40.7210   31.7580 H   0  0  0  0  0  0  0  0  0  0  0  0
   11.3856   41.5433   31.4688 H   0  0  0  0  0  0  0  0  0  0  0  0
   11.6994   39.5065   30.3488 H   0  0  0  0  0  0  0  0  0  0  0  0
   10.1120   38.2722   32.6632 H   0  0  0  0  0  0  0  0  0  0  0  0
   13.6816   37.4632   31.2269 H   0  0  0  0  0  0  0  0  0  0  0  0
    9.0037   37.3828   30.9349 H   0  0  0  0  0  0  0  0  0  0  0  0
   11.2846   36.3040   32.4928 H   0  0  0  0  0  0  0  0  0  0  0  0
   11.8850   36.9590   29.7588 H   0  0  0  0  0  0  0  0  0  0  0  0
   12.3363   38.3599   34.7441 H   0  0  0  0  0  0  0  0  0  0  0  0
   16.7575   34.1791   32.4623 H   0  0  0  0  0  0  0  0  0  0  0  0
   16.6363   34.5317   37.1418 H   0  0  0  0  0  0  0  0  0  0  0  0
   15.3529   35.7355   37.5141 H   0  0  0  0  0  0  0  0  0  0  0  0
  1  2  2  0
  1  3  1  0
  3  4  1  0
  4  5  1  0
  6  1  1  0
  7  6  1  0
  6  8  1  0
  8  9  1  0
  9 10  1  0
  9 11  2  0
 10 12  1  0
 12 13  1  0
 13 14  2  0
 15 13  1  0
 14 16  1  0
 14 17  1  0
 18 15  2  0
 16 19  1  0
 16 20  2  0
 17 21  2  0
 21 18  1  0
  4 22  2  0
  4 23  1  0
 24 23  1  0
 24 25  1  0
 25 26  1  0
 25 27  1  0
 26 28  1  0
 27 29  1  0
 27 30  1  0
 30 28  1  0
 28 31  1  0
 30 32  1  0
 33 31  1  0
 34 31  1  0
 35 33  2  0
 33 36  1  0
 37 34  2  0
 38 35  1  0
 36 39  2  0
 36 37  1  0
 40 38  2  0
 40 39  1  0
 39 41  1  0
  6 42  1  6
  7 43  1  0
  7 44  1  0
  8 45  1  0
  8 46  1  0
 12 47  1  0
 12 48  1  0
 15 49  1  0
 17 50  1  0
 18 51  1  0
 21 52  1  0
 24 53  1  0
 24 54  1  0
 25 55  1  0
 27 56  1  0
 28 57  1  0
 29 58  1  0
 30 59  1  0
 32 60  1  0
 34 61  1  0
 38 62  1  0
 41 63  1  0
 41 64  1  0
M  CHG  3   5  -1  16   1  19  -1
M  END
>  <EmbedRMS>  (289) 
0.08786752000910489

$$$$

     RDKit          3D

 64 67  0  0  0  0  0  0  0  0999 V2000
   10.2872   43.7704   33.8004 C   0  0  0  0  0  0  0  0  0  0  0  0
   11.4099   43.5855   34.3556 O   0  0  0  0  0  0  0  0  0  0  0  0
    9.3669   42.7308   33.6983 O   0  0  0  0  0  0  0  0  0  0  0  0
    9.8848   41.2347   34.2850 P   0  0  0  0  0  5  0  0  0  0  0  0
   10.3652   41.4719   35.8752 O   0  0  0  0  0  1  0  0  0  0  0  0
    9.9526   45.1161   33.2548 C   0  0  2  0  0  0  0  0  0  0  0  0
   11.0702   46.0336   33.4817 N   0  0  0  0  0  0  0  0  0  0  0  0
    8.6592   45.6659   33.8923 C   0  0  0  0  0  0  0  0  0  0  0  0
    8.7289   45.6977   35.3909 C   0  0  0  0  0  0  0  0  0  0  0  0
    9.5632   46.6233   36.0278 O   0  0  0  0  0  0  0  0  0  0  0  0
    8.0624   44.8640   36.0634 O   0  0  0  0  0  0  0  0  0  0  0  0
    9.8107   46.6028   37.4323 C   0  0  0  0  0  0  0  0  0  0  0  0
   10.6491   45.3995   37.8032 C   0  0  0  0  0  0  0  0  0  0  0  0
   11.9446   45.1703   37.2569 C   0  0  0  0  0  0  0  0  0  0  0  0
   10.0887   44.4384   38.6655 C   0  0  0  0  0  0  0  0  0  0  0  0
   12.5859   46.1049   36.3656 N   0  0  0  0  0  4  0  0  0  0  0  0
   12.6172   43.9766   37.5788 C   0  0  0  0  0  0  0  0  0  0  0  0
   10.7815   43.2694   38.9790 C   0  0  0  0  0  0  0  0  0  0  0  0
   13.5521   45.6657   35.4894 O   0  0  0  0  0  1  0  0  0  0  0  0
   12.3983   47.3332   36.4755 O   0  0  0  0  0  0  0  0  0  0  0  0
   12.0413   43.0373   38.4340 C   0  0  0  0  0  0  0  0  0  0  0  0
    8.8076   40.1915   34.2097 O   0  0  0  0  0  0  0  0  0  0  0  0
   11.2366   40.7901   33.3698 O   0  0  0  0  0  0  0  0  0  0  0  0
   10.9155   40.6898   31.9966 C   0  0  0  0  0  0  0  0  0  0  0  0
   11.5269   39.3900   31.4377 C   0  0  0  0  0  0  0  0  0  0  0  0
   12.7508   39.0917   32.0840 O   0  0  0  0  0  0  0  0  0  0  0  0
   10.6122   38.1917   31.6453 C   0  0  0  0  0  0  0  0  0  0  0  0
   12.9429   37.6854   32.0296 C   0  0  0  0  0  0  0  0  0  0  0  0
    9.6070   38.0859   30.6603 O   0  0  0  0  0  0  0  0  0  0  0  0
   11.5845   37.0187   31.6880 C   0  0  0  0  0  0  0  0  0  0  0  0
   13.4899   37.2164   33.3250 N   0  0  0  0  0  0  0  0  0  0  0  0
   11.6201   36.3064   30.4693 O   0  0  0  0  0  0  0  0  0  0  0  0
   14.4758   36.3264   33.5739 C   0  0  0  0  0  0  0  0  0  0  0  0
   13.1176   37.6309   34.5700 C   0  0  0  0  0  0  0  0  0  0  0  0
   15.2065   35.6139   32.6746 N   0  0  0  0  0  0  0  0  0  0  0  0
   14.6731   36.2268   34.9191 C   0  0  0  0  0  0  0  0  0  0  0  0
   13.8225   37.0451   35.5793 N   0  0  0  0  0  0  0  0  0  0  0  0
   16.1640   34.7596   33.1551 C   0  0  0  0  0  0  0  0  0  0  0  0
   15.6517   35.3489   35.4136 C   0  0  0  0  0  0  0  0  0  0  0  0
   16.3795   34.6310   34.5046 N   0  0  0  0  0  0  0  0  0  0  0  0
   15.9006   35.1931   36.8094 N   0  0  0  0  0  0  0  0  0  0  0  0
    9.7842   45.0133   32.1591 H   0  0  0  0  0  0  0  0  0  0  0  0
   10.8131   46.9724   33.0987 H   0  0  0  0  0  0  0  0  0  0  0  0
   11.8844   45.7117   32.9080 H   0  0  0  0  0  0  0  0  0  0  0  0
    7.7980   45.0378   33.5737 H   0  0  0  0  0  0  0  0  0  0  0  0
    8.4635   46.6940   33.5192 H   0  0  0  0  0  0  0  0  0  0  0  0
   10.3314   47.5338   37.7332 H   0  0  0  0  0  0  0  0  0  0  0  0
    8.8397   46.6106   37.9749 H   0  0  0  0  0  0  0  0  0  0  0  0
    9.1020   44.5849   39.0873 H   0  0  0  0  0  0  0  0  0  0  0  0
   13.6006   43.7743   37.1742 H   0  0  0  0  0  0  0  0  0  0  0  0
   10.3357   42.5371   39.6398 H   0  0  0  0  0  0  0  0  0  0  0  0
   12.5742   42.1263   38.6742 H   0  0  0  0  0  0  0  0  0  0  0  0
   11.3827   41.5528   31.4756 H   0  0  0  0  0  0  0  0  0  0  0  0
    9.8255   40.7192   31.7592 H   0  0  0  0  0  0  0  0  0  0  0  0
   11.7317   39.5342   30.3523 H   0  0  0  0  0  0  0  0  0  0  0  0
   10.1214   38.2682   32.6414 H   0  0  0  0  0  0  0  0  0  0  0  0
   13.6882   37.4709   31.2320 H   0  0  0  0  0  0  0  0  0  0  0  0
   10.0257   38.1754   29.7657 H   0  0  0  0  0  0  0  0  0  0  0  0
   11.2796   36.3124   32.4916 H   0  0  0  0  0  0  0  0  0  0  0  0
   11.9872   36.9100   29.7715 H   0  0  0  0  0  0  0  0  0  0  0  0
   12.3367   38.3599   34.7454 H   0  0  0  0  0  0  0  0  0  0  0  0
   16.7576   34.1794   32.4622 H   0  0  0  0  0  0  0  0  0  0  0  0
   15.3532   35.7352   37.5144 H   0  0  0  0  0  0  0  0  0  0  0  0
   16.6368   34.5316   37.1418 H   0  0  0  0  0  0  0  0  0  0  0  0
  1  2  2  0
  1  3  1  0
  3  4  1  0
  4  5  1  0
  6  1  1  0
  7  6  1  0
  6  8  1  0
  8  9  1  0
  9 10  1  0
  9 11  2  0
 10 12  1  0
 12 13  1  0
 13 14  2  0
 15 13  1  0
 14 16  1  0
 14 17  1  0
 18 15  2  0
 16 19  1  0
 16 20  2  0
 17 21  2  0
 21 18  1  0
  4 22  2  0
  4 23  1  0
 24 23  1  0
 24 25  1  0
 25 26  1  0
 25 27  1  0
 26 28  1  0
 27 29  1  0
 27 30  1  0
 30 28  1  0
 28 31  1  0
 30 32  1  0
 33 31  1  0
 34 31  1  0
 35 33  2  0
 33 36  1  0
 37 34  2  0
 38 35  1  0
 36 39  2  0
 36 37  1  0
 40 38  2  0
 40 39  1  0
 39 41  1  0
  6 42  1  6
  7 43  1  0
  7 44  1  0
  8 45  1  0
  8 46  1  0
 12 47  1  0
 12 48  1  0
 15 49  1  0
 17 50  1  0
 18 51  1  0
 21 52  1  0
 24 53  1  0
 24 54  1  0
 25 55  1  0
 27 56  1  0
 28 57  1  0
 29 58  1  0
 30 59  1  0
 32 60  1  0
 34 61  1  0
 38 62  1  0
 41 63  1  0
 41 64  1  0
M  CHG  3   5  -1  16   1  19  -1
M  END
>  <EmbedRMS>  (290) 
0.08684699503748099

$$$$

     RDKit          3D

 64 67  0  0  0  0  0  0  0  0999 V2000
   10.2866   43.7716   33.8033 C   0  0  0  0  0  0  0  0  0  0  0  0
   11.4105   43.5864   34.3558 O   0  0  0  0  0  0  0  0  0  0  0  0
    9.3670   42.7313   33.7005 O   0  0  0  0  0  0  0  0  0  0  0  0
    9.8847   41.2344   34.2851 P   0  0  0  0  0  5  0  0  0  0  0  0
   10.3661   41.4691   35.8748 O   0  0  0  0  0  1  0  0  0  0  0  0
    9.9558   45.1136   33.2483 C   0  0  2  0  0  0  0  0  0  0  0  0
   11.0678   46.0363   33.4838 N   0  0  0  0  0  0  0  0  0  0  0  0
    8.6497   45.6638   33.8588 C   0  0  0  0  0  0  0  0  0  0  0  0
    8.7678   45.9460   35.3289 C   0  0  0  0  0  0  0  0  0  0  0  0
    8.9515   44.8865   36.2212 O   0  0  0  0  0  0  0  0  0  0  0  0
    8.7006   47.1341   35.7473 O   0  0  0  0  0  0  0  0  0  0  0  0
    8.9832   45.0593   37.6332 C   0  0  0  0  0  0  0  0  0  0  0  0
    9.3608   43.7533   38.2807 C   0  0  0  0  0  0  0  0  0  0  0  0
   10.7124   43.3860   38.5237 C   0  0  0  0  0  0  0  0  0  0  0  0
    8.3321   42.8606   38.6303 C   0  0  0  0  0  0  0  0  0  0  0  0
   11.8157   44.2236   38.1328 N   0  0  0  0  0  4  0  0  0  0  0  0
   10.9830   42.1644   39.1659 C   0  0  0  0  0  0  0  0  0  0  0  0
    8.6245   41.6445   39.2487 C   0  0  0  0  0  0  0  0  0  0  0  0
   12.9887   44.1926   38.8514 O   0  0  0  0  0  1  0  0  0  0  0  0
   11.7940   44.8414   37.0487 O   0  0  0  0  0  0  0  0  0  0  0  0
    9.9466   41.3007   39.5231 C   0  0  0  0  0  0  0  0  0  0  0  0
    8.8073   40.1915   34.2096 O   0  0  0  0  0  0  0  0  0  0  0  0
   11.2365   40.7903   33.3694 O   0  0  0  0  0  0  0  0  0  0  0  0
   10.9152   40.6898   31.9964 C   0  0  0  0  0  0  0  0  0  0  0  0
   11.5268   39.3899   31.4376 C   0  0  0  0  0  0  0  0  0  0  0  0
   12.7506   39.0917   32.0840 O   0  0  0  0  0  0  0  0  0  0  0  0
   10.6121   38.1916   31.6453 C   0  0  0  0  0  0  0  0  0  0  0  0
   12.9429   37.6854   32.0296 C   0  0  0  0  0  0  0  0  0  0  0  0
    9.6070   38.0858   30.6603 O   0  0  0  0  0  0  0  0  0  0  0  0
   11.5845   37.0187   31.6880 C   0  0  0  0  0  0  0  0  0  0  0  0
   13.4898   37.2164   33.3251 N   0  0  0  0  0  0  0  0  0  0  0  0
   11.6202   36.3063   30.4693 O   0  0  0  0  0  0  0  0  0  0  0  0
   14.4758   36.3264   33.5739 C   0  0  0  0  0  0  0  0  0  0  0  0
   13.1175   37.6309   34.5700 C   0  0  0  0  0  0  0  0  0  0  0  0
   15.2064   35.6139   32.6747 N   0  0  0  0  0  0  0  0  0  0  0  0
   14.6731   36.2268   34.9191 C   0  0  0  0  0  0  0  0  0  0  0  0
   13.8224   37.0451   35.5793 N   0  0  0  0  0  0  0  0  0  0  0  0
   16.1639   34.7596   33.1551 C   0  0  0  0  0  0  0  0  0  0  0  0
   15.6517   35.3489   35.4136 C   0  0  0  0  0  0  0  0  0  0  0  0
   16.3794   34.6310   34.5046 N   0  0  0  0  0  0  0  0  0  0  0  0
   15.9006   35.1931   36.8094 N   0  0  0  0  0  0  0  0  0  0  0  0
    9.8031   44.9995   32.1514 H   0  0  0  0  0  0  0  0  0  0  0  0
   11.8864   45.7200   32.9132 H   0  0  0  0  0  0  0  0  0  0  0  0
   10.8058   46.9742   33.1015 H   0  0  0  0  0  0  0  0  0  0  0  0
    7.8228   44.9387   33.6986 H   0  0  0  0  0  0  0  0  0  0  0  0
    8.3658   46.5968   33.3242 H   0  0  0  0  0  0  0  0  0  0  0  0
    7.9806   45.3891   37.9837 H   0  0  0  0  0  0  0  0  0  0  0  0
    9.6998   45.8596   37.9155 H   0  0  0  0  0  0  0  0  0  0  0  0
    7.2973   43.1105   38.4299 H   0  0  0  0  0  0  0  0  0  0  0  0
   12.0039   41.8664   39.3682 H   0  0  0  0  0  0  0  0  0  0  0  0
    7.8233   40.9686   39.5185 H   0  0  0  0  0  0  0  0  0  0  0  0
   10.1705   40.3578   40.0052 H   0  0  0  0  0  0  0  0  0  0  0  0
    9.8250   40.7190   31.7593 H   0  0  0  0  0  0  0  0  0  0  0  0
   11.3820   41.5528   31.4752 H   0  0  0  0  0  0  0  0  0  0  0  0
   11.7316   39.5341   30.3522 H   0  0  0  0  0  0  0  0  0  0  0  0
   10.1213   38.2682   32.6413 H   0  0  0  0  0  0  0  0  0  0  0  0
   13.6882   37.4710   31.2320 H   0  0  0  0  0  0  0  0  0  0  0  0
   10.0257   38.1752   29.7657 H   0  0  0  0  0  0  0  0  0  0  0  0
   11.2796   36.3124   32.4916 H   0  0  0  0  0  0  0  0  0  0  0  0
   11.9872   36.9100   29.7715 H   0  0  0  0  0  0  0  0  0  0  0  0
   12.3366   38.3598   34.7455 H   0  0  0  0  0  0  0  0  0  0  0  0
   16.7576   34.1795   32.4622 H   0  0  0  0  0  0  0  0  0  0  0  0
   16.6368   34.5316   37.1418 H   0  0  0  0  0  0  0  0  0  0  0  0
   15.3532   35.7352   37.5144 H   0  0  0  0  0  0  0  0  0  0  0  0
  1  2  2  0
  1  3  1  0
  3  4  1  0
  4  5  1  0
  6  1  1  0
  7  6  1  0
  6  8  1  0
  8  9  1  0
  9 10  1  0
  9 11  2  0
 10 12  1  0
 12 13  1  0
 13 14  2  0
 15 13  1  0
 14 16  1  0
 14 17  1  0
 18 15  2  0
 16 19  1  0
 16 20  2  0
 17 21  2  0
 21 18  1  0
  4 22  2  0
  4 23  1  0
 24 23  1  0
 24 25  1  0
 25 26  1  0
 25 27  1  0
 26 28  1  0
 27 29  1  0
 27 30  1  0
 30 28  1  0
 28 31  1  0
 30 32  1  0
 33 31  1  0
 34 31  1  0
 35 33  2  0
 33 36  1  0
 37 34  2  0
 38 35  1  0
 36 39  2  0
 36 37  1  0
 40 38  2  0
 40 39  1  0
 39 41  1  0
  6 42  1  6
  7 43  1  0
  7 44  1  0
  8 45  1  0
  8 46  1  0
 12 47  1  0
 12 48  1  0
 15 49  1  0
 17 50  1  0
 18 51  1  0
 21 52  1  0
 24 53  1  0
 24 54  1  0
 25 55  1  0
 27 56  1  0
 28 57  1  0
 29 58  1  0
 30 59  1  0
 32 60  1  0
 34 61  1  0
 38 62  1  0
 41 63  1  0
 41 64  1  0
M  CHG  3   5  -1  16   1  19  -1
M  END
>  <EmbedRMS>  (291) 
0.08697615668685055

$$$$

     RDKit          3D

 64 67  0  0  0  0  0  0  0  0999 V2000
   10.2825   43.7754   33.8061 C   0  0  0  0  0  0  0  0  0  0  0  0
   11.4073   43.5911   34.3579 O   0  0  0  0  0  0  0  0  0  0  0  0
    9.3691   42.7303   33.6974 O   0  0  0  0  0  0  0  0  0  0  0  0
    9.8867   41.2343   34.2831 P   0  0  0  0  0  5  0  0  0  0  0  0
   10.3664   41.4702   35.8738 O   0  0  0  0  0  1  0  0  0  0  0  0
    9.9589   45.1137   33.2357 C   0  0  2  0  0  0  0  0  0  0  0  0
   11.0702   46.0297   33.4969 N   0  0  0  0  0  0  0  0  0  0  0  0
    8.6396   45.6752   33.8128 C   0  0  0  0  0  0  0  0  0  0  0  0
    7.4499   45.0221   33.1803 C   0  0  0  0  0  0  0  0  0  0  0  0
    7.0416   45.4368   31.9091 O   0  0  0  0  0  0  0  0  0  0  0  0
    6.8538   44.0827   33.7747 O   0  0  0  0  0  0  0  0  0  0  0  0
    6.1530   44.6795   31.0919 C   0  0  0  0  0  0  0  0  0  0  0  0
    6.8733   43.4898   30.4998 C   0  0  0  0  0  0  0  0  0  0  0  0
    8.0664   43.6279   29.7361 C   0  0  0  0  0  0  0  0  0  0  0  0
    6.3619   42.2025   30.7461 C   0  0  0  0  0  0  0  0  0  0  0  0
    8.6480   44.9125   29.4441 N   0  0  0  0  0  4  0  0  0  0  0  0
    8.7106   42.4722   29.2603 C   0  0  0  0  0  0  0  0  0  0  0  0
    7.0092   41.0711   30.2482 C   0  0  0  0  0  0  0  0  0  0  0  0
   10.0070   45.0238   29.2581 O   0  0  0  0  0  1  0  0  0  0  0  0
    7.9277   45.8996   29.1924 O   0  0  0  0  0  0  0  0  0  0  0  0
    8.1785   41.2065   29.5033 C   0  0  0  0  0  0  0  0  0  0  0  0
    8.8086   40.1919   34.2070 O   0  0  0  0  0  0  0  0  0  0  0  0
   11.2386   40.7909   33.3669 O   0  0  0  0  0  0  0  0  0  0  0  0
   10.9148   40.6860   31.9946 C   0  0  0  0  0  0  0  0  0  0  0  0
   11.5166   39.3788   31.4397 C   0  0  0  0  0  0  0  0  0  0  0  0
   12.7480   39.0879   32.0739 O   0  0  0  0  0  0  0  0  0  0  0  0
   10.6062   38.1857   31.6685 C   0  0  0  0  0  0  0  0  0  0  0  0
   12.9367   37.6818   32.0283 C   0  0  0  0  0  0  0  0  0  0  0  0
    9.6408   38.0731   30.6494 O   0  0  0  0  0  0  0  0  0  0  0  0
   11.5778   37.0150   31.7042 C   0  0  0  0  0  0  0  0  0  0  0  0
   13.4913   37.2188   33.3234 N   0  0  0  0  0  0  0  0  0  0  0  0
   11.6106   36.3410   30.4667 O   0  0  0  0  0  0  0  0  0  0  0  0
   14.4763   36.3275   33.5727 C   0  0  0  0  0  0  0  0  0  0  0  0
   13.1183   37.6321   34.5686 C   0  0  0  0  0  0  0  0  0  0  0  0
   15.2065   35.6142   32.6738 N   0  0  0  0  0  0  0  0  0  0  0  0
   14.6733   36.2276   34.9181 C   0  0  0  0  0  0  0  0  0  0  0  0
   13.8225   37.0458   35.5782 N   0  0  0  0  0  0  0  0  0  0  0  0
   16.1636   34.7595   33.1546 C   0  0  0  0  0  0  0  0  0  0  0  0
   15.6514   35.3492   35.4130 C   0  0  0  0  0  0  0  0  0  0  0  0
   16.3790   34.6310   34.5041 N   0  0  0  0  0  0  0  0  0  0  0  0
   15.9001   35.1934   36.8089 N   0  0  0  0  0  0  0  0  0  0  0  0
    9.8620   44.9965   32.1336 H   0  0  0  0  0  0  0  0  0  0  0  0
   11.0743   46.2944   34.5099 H   0  0  0  0  0  0  0  0  0  0  0  0
   10.9162   46.9069   32.9480 H   0  0  0  0  0  0  0  0  0  0  0  0
    8.5759   46.7653   33.6059 H   0  0  0  0  0  0  0  0  0  0  0  0
    8.6099   45.5440   34.9173 H   0  0  0  0  0  0  0  0  0  0  0  0
    5.7689   45.3214   30.2732 H   0  0  0  0  0  0  0  0  0  0  0  0
    5.2657   44.3734   31.6889 H   0  0  0  0  0  0  0  0  0  0  0  0
    5.4595   42.0705   31.3302 H   0  0  0  0  0  0  0  0  0  0  0  0
    9.6205   42.5517   28.6793 H   0  0  0  0  0  0  0  0  0  0  0  0
    6.6041   40.0865   30.4430 H   0  0  0  0  0  0  0  0  0  0  0  0
    8.6786   40.3288   29.1157 H   0  0  0  0  0  0  0  0  0  0  0  0
    9.8257   40.7235   31.7624 H   0  0  0  0  0  0  0  0  0  0  0  0
   11.3852   41.5434   31.4675 H   0  0  0  0  0  0  0  0  0  0  0  0
   11.6964   39.5031   30.3468 H   0  0  0  0  0  0  0  0  0  0  0  0
   10.1185   38.2597   32.6709 H   0  0  0  0  0  0  0  0  0  0  0  0
   13.6704   37.4590   31.2219 H   0  0  0  0  0  0  0  0  0  0  0  0
    8.8467   38.5861   30.9503 H   0  0  0  0  0  0  0  0  0  0  0  0
   11.2717   36.3044   32.5079 H   0  0  0  0  0  0  0  0  0  0  0  0
   12.1443   35.5166   30.6120 H   0  0  0  0  0  0  0  0  0  0  0  0
   12.3361   38.3597   34.7441 H   0  0  0  0  0  0  0  0  0  0  0  0
   16.7569   34.1789   32.4618 H   0  0  0  0  0  0  0  0  0  0  0  0
   16.6360   34.5315   37.1414 H   0  0  0  0  0  0  0  0  0  0  0  0
   15.3530   35.7357   37.5137 H   0  0  0  0  0  0  0  0  0  0  0  0
  1  2  2  0
  1  3  1  0
  3  4  1  0
  4  5  1  0
  6  1  1  0
  7  6  1  0
  6  8  1  0
  8  9  1  0
  9 10  1  0
  9 11  2  0
 10 12  1  0
 12 13  1  0
 13 14  2  0
 15 13  1  0
 14 16  1  0
 14 17  1  0
 18 15  2  0
 16 19  1  0
 16 20  2  0
 17 21  2  0
 21 18  1  0
  4 22  2  0
  4 23  1  0
 24 23  1  0
 24 25  1  0
 25 26  1  0
 25 27  1  0
 26 28  1  0
 27 29  1  0
 27 30  1  0
 30 28  1  0
 28 31  1  0
 30 32  1  0
 33 31  1  0
 34 31  1  0
 35 33  2  0
 33 36  1  0
 37 34  2  0
 38 35  1  0
 36 39  2  0
 36 37  1  0
 40 38  2  0
 40 39  1  0
 39 41  1  0
  6 42  1  6
  7 43  1  0
  7 44  1  0
  8 45  1  0
  8 46  1  0
 12 47  1  0
 12 48  1  0
 15 49  1  0
 17 50  1  0
 18 51  1  0
 21 52  1  0
 24 53  1  0
 24 54  1  0
 25 55  1  0
 27 56  1  0
 28 57  1  0
 29 58  1  0
 30 59  1  0
 32 60  1  0
 34 61  1  0
 38 62  1  0
 41 63  1  0
 41 64  1  0
M  CHG  3   5  -1  16   1  19  -1
M  END
>  <EmbedRMS>  (292) 
0.08910129765919038

$$$$

     RDKit          3D

 64 67  0  0  0  0  0  0  0  0999 V2000
   10.2810   43.7759   33.8114 C   0  0  0  0  0  0  0  0  0  0  0  0
   11.4041   43.5925   34.3670 O   0  0  0  0  0  0  0  0  0  0  0  0
    9.3697   42.7290   33.6999 O   0  0  0  0  0  0  0  0  0  0  0  0
    9.8872   41.2331   34.2836 P   0  0  0  0  0  5  0  0  0  0  0  0
   10.3672   41.4685   35.8742 O   0  0  0  0  0  1  0  0  0  0  0  0
    9.9498   45.1192   33.2503 C   0  0  2  0  0  0  0  0  0  0  0  0
   11.0777   46.0256   33.4727 N   0  0  0  0  0  0  0  0  0  0  0  0
    8.6811   45.7043   33.9112 C   0  0  0  0  0  0  0  0  0  0  0  0
    7.4388   44.9148   33.6124 C   0  0  0  0  0  0  0  0  0  0  0  0
    7.3034   44.2636   32.3826 O   0  0  0  0  0  0  0  0  0  0  0  0
    6.5086   44.8750   34.4634 O   0  0  0  0  0  0  0  0  0  0  0  0
    6.1868   43.4427   32.0612 C   0  0  0  0  0  0  0  0  0  0  0  0
    6.4391   42.7581   30.7441 C   0  0  0  0  0  0  0  0  0  0  0  0
    6.1187   43.3648   29.5005 C   0  0  0  0  0  0  0  0  0  0  0  0
    7.0300   41.4806   30.7561 C   0  0  0  0  0  0  0  0  0  0  0  0
    5.5707   44.6933   29.4228 N   0  0  0  0  0  4  0  0  0  0  0  0
    6.3457   42.6465   28.3116 C   0  0  0  0  0  0  0  0  0  0  0  0
    7.2657   40.7943   29.5641 C   0  0  0  0  0  0  0  0  0  0  0  0
    6.0485   45.6951   30.2359 O   0  0  0  0  0  1  0  0  0  0  0  0
    4.7923   44.9945   28.4940 O   0  0  0  0  0  0  0  0  0  0  0  0
    6.9167   41.3727   28.3448 C   0  0  0  0  0  0  0  0  0  0  0  0
    8.8093   40.1906   34.2072 O   0  0  0  0  0  0  0  0  0  0  0  0
   11.2387   40.7915   33.3670 O   0  0  0  0  0  0  0  0  0  0  0  0
   10.9162   40.6896   31.9943 C   0  0  0  0  0  0  0  0  0  0  0  0
   11.5271   39.3893   31.4370 C   0  0  0  0  0  0  0  0  0  0  0  0
   12.7501   39.0909   32.0846 O   0  0  0  0  0  0  0  0  0  0  0  0
   10.6114   38.1917   31.6444 C   0  0  0  0  0  0  0  0  0  0  0  0
   12.9417   37.6845   32.0303 C   0  0  0  0  0  0  0  0  0  0  0  0
    9.6072   38.0854   30.6590 O   0  0  0  0  0  0  0  0  0  0  0  0
   11.5830   37.0183   31.6879 C   0  0  0  0  0  0  0  0  0  0  0  0
   13.4887   37.2157   33.3257 N   0  0  0  0  0  0  0  0  0  0  0  0
   11.6195   36.3067   30.4687 O   0  0  0  0  0  0  0  0  0  0  0  0
   14.4755   36.3264   33.5741 C   0  0  0  0  0  0  0  0  0  0  0  0
   13.1170   37.6302   34.5708 C   0  0  0  0  0  0  0  0  0  0  0  0
   15.2063   35.6143   32.6746 N   0  0  0  0  0  0  0  0  0  0  0  0
   14.6734   36.2270   34.9192 C   0  0  0  0  0  0  0  0  0  0  0  0
   13.8228   37.0451   35.5797 N   0  0  0  0  0  0  0  0  0  0  0  0
   16.1644   34.7605   33.1549 C   0  0  0  0  0  0  0  0  0  0  0  0
   15.6520   35.3492   35.4135 C   0  0  0  0  0  0  0  0  0  0  0  0
   16.3800   34.6316   34.5043 N   0  0  0  0  0  0  0  0  0  0  0  0
   15.9010   35.1935   36.8094 N   0  0  0  0  0  0  0  0  0  0  0  0
    9.7829   45.0146   32.1542 H   0  0  0  0  0  0  0  0  0  0  0  0
   10.8364   46.9625   33.0748 H   0  0  0  0  0  0  0  0  0  0  0  0
   11.8905   45.6868   32.9063 H   0  0  0  0  0  0  0  0  0  0  0  0
    8.5154   46.7382   33.5400 H   0  0  0  0  0  0  0  0  0  0  0  0
    8.8304   45.7617   35.0124 H   0  0  0  0  0  0  0  0  0  0  0  0
    6.0417   42.6848   32.8631 H   0  0  0  0  0  0  0  0  0  0  0  0
    5.2599   44.0534   32.0189 H   0  0  0  0  0  0  0  0  0  0  0  0
    7.3005   41.0092   31.6938 H   0  0  0  0  0  0  0  0  0  0  0  0
    6.1009   43.0844   27.3517 H   0  0  0  0  0  0  0  0  0  0  0  0
    7.7148   39.8096   29.5852 H   0  0  0  0  0  0  0  0  0  0  0  0
    7.0960   40.8365   27.4214 H   0  0  0  0  0  0  0  0  0  0  0  0
   11.3827   41.5512   31.4706 H   0  0  0  0  0  0  0  0  0  0  0  0
    9.8268   40.7178   31.7577 H   0  0  0  0  0  0  0  0  0  0  0  0
   11.7336   39.5325   30.3519 H   0  0  0  0  0  0  0  0  0  0  0  0
   10.1192   38.2686   32.6396 H   0  0  0  0  0  0  0  0  0  0  0  0
   13.6872   37.4692   31.2333 H   0  0  0  0  0  0  0  0  0  0  0  0
   10.0250   38.1821   29.7646 H   0  0  0  0  0  0  0  0  0  0  0  0
   11.2763   36.3117   32.4907 H   0  0  0  0  0  0  0  0  0  0  0  0
   11.9850   36.9115   29.7710 H   0  0  0  0  0  0  0  0  0  0  0  0
   12.3354   38.3583   34.7472 H   0  0  0  0  0  0  0  0  0  0  0  0
   16.7588   34.1813   32.4620 H   0  0  0  0  0  0  0  0  0  0  0  0
   16.6371   34.5322   37.1426 H   0  0  0  0  0  0  0  0  0  0  0  0
   15.3537   35.7359   37.5143 H   0  0  0  0  0  0  0  0  0  0  0  0
  1  2  2  0
  1  3  1  0
  3  4  1  0
  4  5  1  0
  6  1  1  0
  7  6  1  0
  6  8  1  0
  8  9  1  0
  9 10  1  0
  9 11  2  0
 10 12  1  0
 12 13  1  0
 13 14  2  0
 15 13  1  0
 14 16  1  0
 14 17  1  0
 18 15  2  0
 16 19  1  0
 16 20  2  0
 17 21  2  0
 21 18  1  0
  4 22  2  0
  4 23  1  0
 24 23  1  0
 24 25  1  0
 25 26  1  0
 25 27  1  0
 26 28  1  0
 27 29  1  0
 27 30  1  0
 30 28  1  0
 28 31  1  0
 30 32  1  0
 33 31  1  0
 34 31  1  0
 35 33  2  0
 33 36  1  0
 37 34  2  0
 38 35  1  0
 36 39  2  0
 36 37  1  0
 40 38  2  0
 40 39  1  0
 39 41  1  0
  6 42  1  6
  7 43  1  0
  7 44  1  0
  8 45  1  0
  8 46  1  0
 12 47  1  0
 12 48  1  0
 15 49  1  0
 17 50  1  0
 18 51  1  0
 21 52  1  0
 24 53  1  0
 24 54  1  0
 25 55  1  0
 27 56  1  0
 28 57  1  0
 29 58  1  0
 30 59  1  0
 32 60  1  0
 34 61  1  0
 38 62  1  0
 41 63  1  0
 41 64  1  0
M  CHG  3   5  -1  16   1  19  -1
M  END
>  <EmbedRMS>  (293) 
0.0871822524949853

$$$$

     RDKit          3D

 64 67  0  0  0  0  0  0  0  0999 V2000
   10.2828   43.7755   33.8080 C   0  0  0  0  0  0  0  0  0  0  0  0
   11.4086   43.5914   34.3580 O   0  0  0  0  0  0  0  0  0  0  0  0
    9.3667   42.7319   33.7015 O   0  0  0  0  0  0  0  0  0  0  0  0
    9.8864   41.2345   34.2833 P   0  0  0  0  0  5  0  0  0  0  0  0
   10.3677   41.4691   35.8737 O   0  0  0  0  0  1  0  0  0  0  0  0
    9.9539   45.1113   33.2429 C   0  0  2  0  0  0  0  0  0  0  0  0
   11.0721   46.0272   33.4845 N   0  0  0  0  0  0  0  0  0  0  0  0
    8.6401   45.6451   33.8517 C   0  0  0  0  0  0  0  0  0  0  0  0
    8.2181   46.9255   33.2008 C   0  0  0  0  0  0  0  0  0  0  0  0
    7.7444   46.9012   31.8866 O   0  0  0  0  0  0  0  0  0  0  0  0
    8.3183   48.0142   33.8299 O   0  0  0  0  0  0  0  0  0  0  0  0
    7.3606   48.0798   31.1830 C   0  0  0  0  0  0  0  0  0  0  0  0
    6.9464   47.7524   29.7658 C   0  0  0  0  0  0  0  0  0  0  0  0
    6.0212   48.5644   29.0553 C   0  0  0  0  0  0  0  0  0  0  0  0
    7.5124   46.6360   29.1178 C   0  0  0  0  0  0  0  0  0  0  0  0
    5.4848   49.7754   29.6164 N   0  0  0  0  0  4  0  0  0  0  0  0
    5.6249   48.1833   27.7612 C   0  0  0  0  0  0  0  0  0  0  0  0
    7.1199   46.2873   27.8249 C   0  0  0  0  0  0  0  0  0  0  0  0
    4.2201   50.1916   29.2690 O   0  0  0  0  0  1  0  0  0  0  0  0
    6.2194   50.5564   30.2557 O   0  0  0  0  0  0  0  0  0  0  0  0
    6.1692   47.0520   27.1528 C   0  0  0  0  0  0  0  0  0  0  0  0
    8.8087   40.1917   34.2082 O   0  0  0  0  0  0  0  0  0  0  0  0
   11.2376   40.7914   33.3656 O   0  0  0  0  0  0  0  0  0  0  0  0
   10.9142   40.6852   31.9929 C   0  0  0  0  0  0  0  0  0  0  0  0
   11.5166   39.3774   31.4393 C   0  0  0  0  0  0  0  0  0  0  0  0
   12.7471   39.0855   32.0740 O   0  0  0  0  0  0  0  0  0  0  0  0
   10.6047   38.1868   31.6670 C   0  0  0  0  0  0  0  0  0  0  0  0
   12.9345   37.6791   32.0282 C   0  0  0  0  0  0  0  0  0  0  0  0
    9.6378   38.0918   30.6488 O   0  0  0  0  0  0  0  0  0  0  0  0
   11.5761   37.0129   31.7057 C   0  0  0  0  0  0  0  0  0  0  0  0
   13.4909   37.2177   33.3233 N   0  0  0  0  0  0  0  0  0  0  0  0
   11.6234   36.3372   30.4684 O   0  0  0  0  0  0  0  0  0  0  0  0
   14.4765   36.3272   33.5727 C   0  0  0  0  0  0  0  0  0  0  0  0
   13.1182   37.6316   34.5685 C   0  0  0  0  0  0  0  0  0  0  0  0
   15.2066   35.6137   32.6739 N   0  0  0  0  0  0  0  0  0  0  0  0
   14.6735   36.2276   34.9182 C   0  0  0  0  0  0  0  0  0  0  0  0
   13.8227   37.0457   35.5781 N   0  0  0  0  0  0  0  0  0  0  0  0
   16.1638   34.7593   33.1548 C   0  0  0  0  0  0  0  0  0  0  0  0
   15.6517   35.3492   35.4131 C   0  0  0  0  0  0  0  0  0  0  0  0
   16.3792   34.6309   34.5043 N   0  0  0  0  0  0  0  0  0  0  0  0
   15.9002   35.1934   36.8090 N   0  0  0  0  0  0  0  0  0  0  0  0
    9.8232   44.9833   32.1449 H   0  0  0  0  0  0  0  0  0  0  0  0
   10.9363   46.8889   32.9078 H   0  0  0  0  0  0  0  0  0  0  0  0
   11.0802   46.3193   34.4897 H   0  0  0  0  0  0  0  0  0  0  0  0
    8.7570   45.7951   34.9480 H   0  0  0  0  0  0  0  0  0  0  0  0
    7.8267   44.9029   33.6994 H   0  0  0  0  0  0  0  0  0  0  0  0
    6.5143   48.5450   31.7322 H   0  0  0  0  0  0  0  0  0  0  0  0
    8.2146   48.7903   31.1517 H   0  0  0  0  0  0  0  0  0  0  0  0
    8.2538   46.0228   29.6146 H   0  0  0  0  0  0  0  0  0  0  0  0
    4.9113   48.7816   27.2089 H   0  0  0  0  0  0  0  0  0  0  0  0
    7.5529   45.4195   27.3440 H   0  0  0  0  0  0  0  0  0  0  0  0
    5.8644   46.7771   26.1512 H   0  0  0  0  0  0  0  0  0  0  0  0
    9.8240   40.7211   31.7568 H   0  0  0  0  0  0  0  0  0  0  0  0
   11.3866   41.5416   31.4661 H   0  0  0  0  0  0  0  0  0  0  0  0
   11.6987   39.5012   30.3467 H   0  0  0  0  0  0  0  0  0  0  0  0
   10.1095   38.2772   32.6629 H   0  0  0  0  0  0  0  0  0  0  0  0
   13.6672   37.4546   31.2213 H   0  0  0  0  0  0  0  0  0  0  0  0
    8.9779   37.4158   30.9533 H   0  0  0  0  0  0  0  0  0  0  0  0
   11.2860   36.3041   32.5177 H   0  0  0  0  0  0  0  0  0  0  0  0
   10.8690   35.6919   30.4657 H   0  0  0  0  0  0  0  0  0  0  0  0
   12.3356   38.3587   34.7440 H   0  0  0  0  0  0  0  0  0  0  0  0
   16.7572   34.1786   32.4621 H   0  0  0  0  0  0  0  0  0  0  0  0
   15.3530   35.7357   37.5138 H   0  0  0  0  0  0  0  0  0  0  0  0
   16.6361   34.5315   37.1415 H   0  0  0  0  0  0  0  0  0  0  0  0
  1  2  2  0
  1  3  1  0
  3  4  1  0
  4  5  1  0
  6  1  1  0
  7  6  1  0
  6  8  1  0
  8  9  1  0
  9 10  1  0
  9 11  2  0
 10 12  1  0
 12 13  1  0
 13 14  2  0
 15 13  1  0
 14 16  1  0
 14 17  1  0
 18 15  2  0
 16 19  1  0
 16 20  2  0
 17 21  2  0
 21 18  1  0
  4 22  2  0
  4 23  1  0
 24 23  1  0
 24 25  1  0
 25 26  1  0
 25 27  1  0
 26 28  1  0
 27 29  1  0
 27 30  1  0
 30 28  1  0
 28 31  1  0
 30 32  1  0
 33 31  1  0
 34 31  1  0
 35 33  2  0
 33 36  1  0
 37 34  2  0
 38 35  1  0
 36 39  2  0
 36 37  1  0
 40 38  2  0
 40 39  1  0
 39 41  1  0
  6 42  1  6
  7 43  1  0
  7 44  1  0
  8 45  1  0
  8 46  1  0
 12 47  1  0
 12 48  1  0
 15 49  1  0
 17 50  1  0
 18 51  1  0
 21 52  1  0
 24 53  1  0
 24 54  1  0
 25 55  1  0
 27 56  1  0
 28 57  1  0
 29 58  1  0
 30 59  1  0
 32 60  1  0
 34 61  1  0
 38 62  1  0
 41 63  1  0
 41 64  1  0
M  CHG  3   5  -1  16   1  19  -1
M  END
>  <EmbedRMS>  (294) 
0.08872468031909808

$$$$

     RDKit          3D

 64 67  0  0  0  0  0  0  0  0999 V2000
   10.2810   43.7763   33.8093 C   0  0  0  0  0  0  0  0  0  0  0  0
   11.4074   43.5925   34.3582 O   0  0  0  0  0  0  0  0  0  0  0  0
    9.3721   42.7282   33.6950 O   0  0  0  0  0  0  0  0  0  0  0  0
    9.8873   41.2334   34.2841 P   0  0  0  0  0  5  0  0  0  0  0  0
   10.3656   41.4713   35.8747 O   0  0  0  0  0  1  0  0  0  0  0  0
    9.9457   45.1202   33.2563 C   0  0  2  0  0  0  0  0  0  0  0  0
   11.0773   46.0233   33.4750 N   0  0  0  0  0  0  0  0  0  0  0  0
    8.6642   45.7005   33.8982 C   0  0  0  0  0  0  0  0  0  0  0  0
    7.4295   44.9890   33.4352 C   0  0  0  0  0  0  0  0  0  0  0  0
    6.9388   43.9144   34.1806 O   0  0  0  0  0  0  0  0  0  0  0  0
    6.8677   45.3387   32.3613 O   0  0  0  0  0  0  0  0  0  0  0  0
    5.8049   43.1482   33.7875 C   0  0  0  0  0  0  0  0  0  0  0  0
    5.6557   41.9589   34.7045 C   0  0  0  0  0  0  0  0  0  0  0  0
    5.6429   42.0925   36.1195 C   0  0  0  0  0  0  0  0  0  0  0  0
    5.5714   40.6737   34.1364 C   0  0  0  0  0  0  0  0  0  0  0  0
    5.6897   43.3807   36.7604 N   0  0  0  0  0  4  0  0  0  0  0  0
    5.5943   40.9335   36.9167 C   0  0  0  0  0  0  0  0  0  0  0  0
    5.5056   39.5388   34.9462 C   0  0  0  0  0  0  0  0  0  0  0  0
    4.9741   44.4416   36.2560 O   0  0  0  0  0  1  0  0  0  0  0  0
    6.2481   43.5078   37.8704 O   0  0  0  0  0  0  0  0  0  0  0  0
    5.5246   39.6678   36.3332 C   0  0  0  0  0  0  0  0  0  0  0  0
    8.8096   40.1910   34.2086 O   0  0  0  0  0  0  0  0  0  0  0  0
   11.2384   40.7883   33.3688 O   0  0  0  0  0  0  0  0  0  0  0  0
   10.9158   40.6876   31.9958 C   0  0  0  0  0  0  0  0  0  0  0  0
   11.5264   39.3870   31.4366 C   0  0  0  0  0  0  0  0  0  0  0  0
   12.7495   39.0891   32.0819 O   0  0  0  0  0  0  0  0  0  0  0  0
   10.6124   38.1892   31.6461 C   0  0  0  0  0  0  0  0  0  0  0  0
   12.9374   37.6825   32.0306 C   0  0  0  0  0  0  0  0  0  0  0  0
    9.6149   38.0840   30.6540 O   0  0  0  0  0  0  0  0  0  0  0  0
   11.5794   37.0136   31.7016 C   0  0  0  0  0  0  0  0  0  0  0  0
   13.4908   37.2168   33.3249 N   0  0  0  0  0  0  0  0  0  0  0  0
   11.6216   36.3251   30.4727 O   0  0  0  0  0  0  0  0  0  0  0  0
   14.4768   36.3266   33.5731 C   0  0  0  0  0  0  0  0  0  0  0  0
   13.1185   37.6296   34.5708 C   0  0  0  0  0  0  0  0  0  0  0  0
   15.2067   35.6139   32.6735 N   0  0  0  0  0  0  0  0  0  0  0  0
   14.6742   36.2258   34.9185 C   0  0  0  0  0  0  0  0  0  0  0  0
   13.8234   37.0428   35.5798 N   0  0  0  0  0  0  0  0  0  0  0  0
   16.1642   34.7591   33.1535 C   0  0  0  0  0  0  0  0  0  0  0  0
   15.6519   35.3487   35.4115 C   0  0  0  0  0  0  0  0  0  0  0  0
   16.3803   34.6302   34.5027 N   0  0  0  0  0  0  0  0  0  0  0  0
   15.8937   35.1997   36.8082 N   0  0  0  0  0  0  0  0  0  0  0  0
    9.7914   45.0107   32.1595 H   0  0  0  0  0  0  0  0  0  0  0  0
   11.1316   46.2801   34.4887 H   0  0  0  0  0  0  0  0  0  0  0  0
   10.9087   46.9064   32.9402 H   0  0  0  0  0  0  0  0  0  0  0  0
    8.7312   45.6410   35.0069 H   0  0  0  0  0  0  0  0  0  0  0  0
    8.5670   46.7752   33.6295 H   0  0  0  0  0  0  0  0  0  0  0  0
    4.8877   43.7731   33.8243 H   0  0  0  0  0  0  0  0  0  0  0  0
    5.9431   42.8153   32.7340 H   0  0  0  0  0  0  0  0  0  0  0  0
    5.5730   40.5448   33.0607 H   0  0  0  0  0  0  0  0  0  0  0  0
    5.5917   41.0118   37.9970 H   0  0  0  0  0  0  0  0  0  0  0  0
    5.4489   38.5557   34.4964 H   0  0  0  0  0  0  0  0  0  0  0  0
    5.4792   38.7851   36.9585 H   0  0  0  0  0  0  0  0  0  0  0  0
    9.8255   40.7166   31.7596 H   0  0  0  0  0  0  0  0  0  0  0  0
   11.3822   41.5506   31.4741 H   0  0  0  0  0  0  0  0  0  0  0  0
   11.7293   39.5289   30.3506 H   0  0  0  0  0  0  0  0  0  0  0  0
   10.1140   38.2708   32.6379 H   0  0  0  0  0  0  0  0  0  0  0  0
   13.6721   37.4628   31.2243 H   0  0  0  0  0  0  0  0  0  0  0  0
   10.0529   38.1092   29.7638 H   0  0  0  0  0  0  0  0  0  0  0  0
   11.2650   36.3136   32.5113 H   0  0  0  0  0  0  0  0  0  0  0  0
   12.1549   35.5030   30.6316 H   0  0  0  0  0  0  0  0  0  0  0  0
   12.3372   38.3581   34.7474 H   0  0  0  0  0  0  0  0  0  0  0  0
   16.7572   34.1787   32.4602 H   0  0  0  0  0  0  0  0  0  0  0  0
   16.6244   34.5397   37.1552 H   0  0  0  0  0  0  0  0  0  0  0  0
   16.6234   34.5411   37.1598 H   0  0  0  0  0  0  0  0  0  0  0  0
  1  2  2  0
  1  3  1  0
  3  4  1  0
  4  5  1  0
  6  1  1  0
  7  6  1  0
  6  8  1  0
  8  9  1  0
  9 10  1  0
  9 11  2  0
 10 12  1  0
 12 13  1  0
 13 14  2  0
 15 13  1  0
 14 16  1  0
 14 17  1  0
 18 15  2  0
 16 19  1  0
 16 20  2  0
 17 21  2  0
 21 18  1  0
  4 22  2  0
  4 23  1  0
 24 23  1  0
 24 25  1  0
 25 26  1  0
 25 27  1  0
 26 28  1  0
 27 29  1  0
 27 30  1  0
 30 28  1  0
 28 31  1  0
 30 32  1  0
 33 31  1  0
 34 31  1  0
 35 33  2  0
 33 36  1  0
 37 34  2  0
 38 35  1  0
 36 39  2  0
 36 37  1  0
 40 38  2  0
 40 39  1  0
 39 41  1  0
  6 42  1  6
  7 43  1  0
  7 44  1  0
  8 45  1  0
  8 46  1  0
 12 47  1  0
 12 48  1  0
 15 49  1  0
 17 50  1  0
 18 51  1  0
 21 52  1  0
 24 53  1  0
 24 54  1  0
 25 55  1  0
 27 56  1  0
 28 57  1  0
 29 58  1  0
 30 59  1  0
 32 60  1  0
 34 61  1  0
 38 62  1  0
 41 63  1  0
 41 64  1  0
M  CHG  3   5  -1  16   1  19  -1
M  END
>  <EmbedRMS>  (295) 
0.08852742380629991

$$$$

     RDKit          3D

 64 67  0  0  0  0  0  0  0  0999 V2000
   10.2870   43.7713   33.8027 C   0  0  0  0  0  0  0  0  0  0  0  0
   11.4121   43.5867   34.3534 O   0  0  0  0  0  0  0  0  0  0  0  0
    9.3675   42.7308   33.6994 O   0  0  0  0  0  0  0  0  0  0  0  0
    9.8849   41.2343   34.2848 P   0  0  0  0  0  5  0  0  0  0  0  0
   10.3652   41.4712   35.8752 O   0  0  0  0  0  1  0  0  0  0  0  0
    9.9564   45.1117   33.2474 C   0  0  2  0  0  0  0  0  0  0  0  0
   11.0663   46.0370   33.4869 N   0  0  0  0  0  0  0  0  0  0  0  0
    8.6221   45.6560   33.8068 C   0  0  0  0  0  0  0  0  0  0  0  0
    8.6212   45.7860   35.3022 C   0  0  0  0  0  0  0  0  0  0  0  0
    8.5533   44.6321   36.0906 O   0  0  0  0  0  0  0  0  0  0  0  0
    8.7080   46.9268   35.8326 O   0  0  0  0  0  0  0  0  0  0  0  0
    8.4830   44.6476   37.5139 C   0  0  0  0  0  0  0  0  0  0  0  0
    7.0884   45.0018   37.9686 C   0  0  0  0  0  0  0  0  0  0  0  0
    6.0378   44.0457   38.0014 C   0  0  0  0  0  0  0  0  0  0  0  0
    6.8313   46.3206   38.3853 C   0  0  0  0  0  0  0  0  0  0  0  0
    6.2331   42.6846   37.5742 N   0  0  0  0  0  4  0  0  0  0  0  0
    4.7738   44.4358   38.4820 C   0  0  0  0  0  0  0  0  0  0  0  0
    5.5662   46.6893   38.8436 C   0  0  0  0  0  0  0  0  0  0  0  0
    6.9859   42.3978   36.4595 O   0  0  0  0  0  1  0  0  0  0  0  0
    5.5859   41.7622   38.1121 O   0  0  0  0  0  0  0  0  0  0  0  0
    4.5406   45.7479   38.8958 C   0  0  0  0  0  0  0  0  0  0  0  0
    8.8071   40.1918   34.2097 O   0  0  0  0  0  0  0  0  0  0  0  0
   11.2365   40.7893   33.3689 O   0  0  0  0  0  0  0  0  0  0  0  0
   10.9151   40.6881   31.9957 C   0  0  0  0  0  0  0  0  0  0  0  0
   11.5259   39.3872   31.4368 C   0  0  0  0  0  0  0  0  0  0  0  0
   12.7491   39.0894   32.0820 O   0  0  0  0  0  0  0  0  0  0  0  0
   10.6122   38.1893   31.6462 C   0  0  0  0  0  0  0  0  0  0  0  0
   12.9373   37.6828   32.0301 C   0  0  0  0  0  0  0  0  0  0  0  0
    9.6150   38.0839   30.6538 O   0  0  0  0  0  0  0  0  0  0  0  0
   11.5793   37.0137   31.7014 C   0  0  0  0  0  0  0  0  0  0  0  0
   13.4906   37.2170   33.3242 N   0  0  0  0  0  0  0  0  0  0  0  0
   11.6216   36.3253   30.4725 O   0  0  0  0  0  0  0  0  0  0  0  0
   14.4763   36.3266   33.5731 C   0  0  0  0  0  0  0  0  0  0  0  0
   13.1181   37.6308   34.5694 C   0  0  0  0  0  0  0  0  0  0  0  0
   15.2065   35.6137   32.6740 N   0  0  0  0  0  0  0  0  0  0  0  0
   14.6735   36.2270   34.9185 C   0  0  0  0  0  0  0  0  0  0  0  0
   13.8229   37.0451   35.5787 N   0  0  0  0  0  0  0  0  0  0  0  0
   16.1639   34.7593   33.1547 C   0  0  0  0  0  0  0  0  0  0  0  0
   15.6518   35.3489   35.4132 C   0  0  0  0  0  0  0  0  0  0  0  0
   16.3794   34.6308   34.5042 N   0  0  0  0  0  0  0  0  0  0  0  0
   15.9006   35.1931   36.8090 N   0  0  0  0  0  0  0  0  0  0  0  0
    9.8393   44.9897   32.1482 H   0  0  0  0  0  0  0  0  0  0  0  0
   11.1483   46.2426   34.5094 H   0  0  0  0  0  0  0  0  0  0  0  0
   10.8572   46.9412   33.0043 H   0  0  0  0  0  0  0  0  0  0  0  0
    8.4069   46.6448   33.3458 H   0  0  0  0  0  0  0  0  0  0  0  0
    7.7937   44.9763   33.5116 H   0  0  0  0  0  0  0  0  0  0  0  0
    8.7576   43.6439   37.9004 H   0  0  0  0  0  0  0  0  0  0  0  0
    9.2378   45.3540   37.9246 H   0  0  0  0  0  0  0  0  0  0  0  0
    7.6165   47.0662   38.3667 H   0  0  0  0  0  0  0  0  0  0  0  0
    3.9594   43.7234   38.5210 H   0  0  0  0  0  0  0  0  0  0  0  0
    5.3826   47.7066   39.1645 H   0  0  0  0  0  0  0  0  0  0  0  0
    3.5610   46.0356   39.2552 H   0  0  0  0  0  0  0  0  0  0  0  0
   11.3823   41.5505   31.4739 H   0  0  0  0  0  0  0  0  0  0  0  0
    9.8249   40.7179   31.7588 H   0  0  0  0  0  0  0  0  0  0  0  0
   11.7288   39.5291   30.3507 H   0  0  0  0  0  0  0  0  0  0  0  0
   10.1138   38.2717   32.6380 H   0  0  0  0  0  0  0  0  0  0  0  0
   13.6725   37.4637   31.2240 H   0  0  0  0  0  0  0  0  0  0  0  0
   10.0536   38.1086   29.7639 H   0  0  0  0  0  0  0  0  0  0  0  0
   11.2646   36.3134   32.5107 H   0  0  0  0  0  0  0  0  0  0  0  0
   12.1550   35.5033   30.6315 H   0  0  0  0  0  0  0  0  0  0  0  0
   12.3362   38.3586   34.7450 H   0  0  0  0  0  0  0  0  0  0  0  0
   16.7573   34.1788   32.4619 H   0  0  0  0  0  0  0  0  0  0  0  0
   16.6366   34.5314   37.1415 H   0  0  0  0  0  0  0  0  0  0  0  0
   15.3533   35.7353   37.5139 H   0  0  0  0  0  0  0  0  0  0  0  0
  1  2  2  0
  1  3  1  0
  3  4  1  0
  4  5  1  0
  6  1  1  0
  7  6  1  0
  6  8  1  0
  8  9  1  0
  9 10  1  0
  9 11  2  0
 10 12  1  0
 12 13  1  0
 13 14  2  0
 15 13  1  0
 14 16  1  0
 14 17  1  0
 18 15  2  0
 16 19  1  0
 16 20  2  0
 17 21  2  0
 21 18  1  0
  4 22  2  0
  4 23  1  0
 24 23  1  0
 24 25  1  0
 25 26  1  0
 25 27  1  0
 26 28  1  0
 27 29  1  0
 27 30  1  0
 30 28  1  0
 28 31  1  0
 30 32  1  0
 33 31  1  0
 34 31  1  0
 35 33  2  0
 33 36  1  0
 37 34  2  0
 38 35  1  0
 36 39  2  0
 36 37  1  0
 40 38  2  0
 40 39  1  0
 39 41  1  0
  6 42  1  6
  7 43  1  0
  7 44  1  0
  8 45  1  0
  8 46  1  0
 12 47  1  0
 12 48  1  0
 15 49  1  0
 17 50  1  0
 18 51  1  0
 21 52  1  0
 24 53  1  0
 24 54  1  0
 25 55  1  0
 27 56  1  0
 28 57  1  0
 29 58  1  0
 30 59  1  0
 32 60  1  0
 34 61  1  0
 38 62  1  0
 41 63  1  0
 41 64  1  0
M  CHG  3   5  -1  16   1  19  -1
M  END
>  <EmbedRMS>  (296) 
0.08784384638833183

$$$$

     RDKit          3D

 64 67  0  0  0  0  0  0  0  0999 V2000
   10.2862   43.7710   33.8099 C   0  0  0  0  0  0  0  0  0  0  0  0
   11.4100   43.5818   34.3616 O   0  0  0  0  0  0  0  0  0  0  0  0
    9.3669   42.7308   33.7020 O   0  0  0  0  0  0  0  0  0  0  0  0
    9.8847   41.2330   34.2845 P   0  0  0  0  0  5  0  0  0  0  0  0
   10.3648   41.4677   35.8752 O   0  0  0  0  0  1  0  0  0  0  0  0
    9.9605   45.1125   33.2475 C   0  0  2  0  0  0  0  0  0  0  0  0
   11.0657   46.0479   33.4747 N   0  0  0  0  0  0  0  0  0  0  0  0
    8.6650   45.6568   33.8723 C   0  0  0  0  0  0  0  0  0  0  0  0
    8.2782   46.9656   33.2567 C   0  0  0  0  0  0  0  0  0  0  0  0
    8.7683   48.1535   33.8056 O   0  0  0  0  0  0  0  0  0  0  0  0
    7.5498   46.9840   32.2270 O   0  0  0  0  0  0  0  0  0  0  0  0
    8.4706   49.4358   33.2588 C   0  0  0  0  0  0  0  0  0  0  0  0
    9.1320   50.5350   34.0601 C   0  0  0  0  0  0  0  0  0  0  0  0
    9.4674   51.7842   33.4705 C   0  0  0  0  0  0  0  0  0  0  0  0
    9.3976   50.3340   35.4297 C   0  0  0  0  0  0  0  0  0  0  0  0
    9.1342   52.0951   32.1060 N   0  0  0  0  0  4  0  0  0  0  0  0
   10.1347   52.7515   34.2424 C   0  0  0  0  0  0  0  0  0  0  0  0
   10.0430   51.3158   36.1826 C   0  0  0  0  0  0  0  0  0  0  0  0
    9.9386   52.9422   31.3789 O   0  0  0  0  0  1  0  0  0  0  0  0
    8.0261   51.7671   31.6341 O   0  0  0  0  0  0  0  0  0  0  0  0
   10.4214   52.5170   35.5874 C   0  0  0  0  0  0  0  0  0  0  0  0
    8.8073   40.1902   34.2076 O   0  0  0  0  0  0  0  0  0  0  0  0
   11.2377   40.7903   33.3696 O   0  0  0  0  0  0  0  0  0  0  0  0
   10.9187   40.6904   31.9961 C   0  0  0  0  0  0  0  0  0  0  0  0
   11.5175   39.3823   31.4411 C   0  0  0  0  0  0  0  0  0  0  0  0
   12.7494   39.0893   32.0756 O   0  0  0  0  0  0  0  0  0  0  0  0
   10.6036   38.1899   31.6659 C   0  0  0  0  0  0  0  0  0  0  0  0
   12.9401   37.6834   32.0276 C   0  0  0  0  0  0  0  0  0  0  0  0
    9.6376   38.0784   30.6474 O   0  0  0  0  0  0  0  0  0  0  0  0
   11.5804   37.0203   31.6937 C   0  0  0  0  0  0  0  0  0  0  0  0
   13.4902   37.2177   33.3237 N   0  0  0  0  0  0  0  0  0  0  0  0
   11.6118   36.3193   30.4680 O   0  0  0  0  0  0  0  0  0  0  0  0
   14.4759   36.3271   33.5731 C   0  0  0  0  0  0  0  0  0  0  0  0
   13.1176   37.6317   34.5688 C   0  0  0  0  0  0  0  0  0  0  0  0
   15.2064   35.6141   32.6742 N   0  0  0  0  0  0  0  0  0  0  0  0
   14.6729   36.2274   34.9184 C   0  0  0  0  0  0  0  0  0  0  0  0
   13.8221   37.0457   35.5783 N   0  0  0  0  0  0  0  0  0  0  0  0
   16.1637   34.7597   33.1549 C   0  0  0  0  0  0  0  0  0  0  0  0
   15.6514   35.3493   35.4133 C   0  0  0  0  0  0  0  0  0  0  0  0
   16.3791   34.6312   34.5044 N   0  0  0  0  0  0  0  0  0  0  0  0
   15.9001   35.1935   36.8091 N   0  0  0  0  0  0  0  0  0  0  0  0
    9.8089   44.9958   32.1514 H   0  0  0  0  0  0  0  0  0  0  0  0
   11.2747   46.1197   34.4981 H   0  0  0  0  0  0  0  0  0  0  0  0
   11.9223   45.7014   32.9834 H   0  0  0  0  0  0  0  0  0  0  0  0
    8.7981   45.7936   34.9680 H   0  0  0  0  0  0  0  0  0  0  0  0
    7.8358   44.9312   33.7201 H   0  0  0  0  0  0  0  0  0  0  0  0
    8.8395   49.4548   32.2109 H   0  0  0  0  0  0  0  0  0  0  0  0
    7.3711   49.5970   33.2652 H   0  0  0  0  0  0  0  0  0  0  0  0
    9.1155   49.4110   35.9203 H   0  0  0  0  0  0  0  0  0  0  0  0
   10.4098   53.7041   33.8079 H   0  0  0  0  0  0  0  0  0  0  0  0
   10.2524   51.1430   37.2304 H   0  0  0  0  0  0  0  0  0  0  0  0
   10.9247   53.2754   36.1733 H   0  0  0  0  0  0  0  0  0  0  0  0
    9.8308   40.7397   31.7558 H   0  0  0  0  0  0  0  0  0  0  0  0
   11.3998   41.5454   31.4747 H   0  0  0  0  0  0  0  0  0  0  0  0
   11.6989   39.5091   30.3489 H   0  0  0  0  0  0  0  0  0  0  0  0
   10.1130   38.2588   32.6663 H   0  0  0  0  0  0  0  0  0  0  0  0
   13.6800   37.4628   31.2265 H   0  0  0  0  0  0  0  0  0  0  0  0
    8.8952   38.6907   30.8891 H   0  0  0  0  0  0  0  0  0  0  0  0
   11.2831   36.3060   32.4929 H   0  0  0  0  0  0  0  0  0  0  0  0
   11.8859   36.9589   29.7593 H   0  0  0  0  0  0  0  0  0  0  0  0
   12.3360   38.3600   34.7441 H   0  0  0  0  0  0  0  0  0  0  0  0
   16.7572   34.1793   32.4621 H   0  0  0  0  0  0  0  0  0  0  0  0
   16.6362   34.5318   37.1416 H   0  0  0  0  0  0  0  0  0  0  0  0
   15.3528   35.7356   37.5140 H   0  0  0  0  0  0  0  0  0  0  0  0
  1  2  2  0
  1  3  1  0
  3  4  1  0
  4  5  1  0
  6  1  1  0
  7  6  1  0
  6  8  1  0
  8  9  1  0
  9 10  1  0
  9 11  2  0
 10 12  1  0
 12 13  1  0
 13 14  2  0
 15 13  1  0
 14 16  1  0
 14 17  1  0
 18 15  2  0
 16 19  1  0
 16 20  2  0
 17 21  2  0
 21 18  1  0
  4 22  2  0
  4 23  1  0
 24 23  1  0
 24 25  1  0
 25 26  1  0
 25 27  1  0
 26 28  1  0
 27 29  1  0
 27 30  1  0
 30 28  1  0
 28 31  1  0
 30 32  1  0
 33 31  1  0
 34 31  1  0
 35 33  2  0
 33 36  1  0
 37 34  2  0
 38 35  1  0
 36 39  2  0
 36 37  1  0
 40 38  2  0
 40 39  1  0
 39 41  1  0
  6 42  1  6
  7 43  1  0
  7 44  1  0
  8 45  1  0
  8 46  1  0
 12 47  1  0
 12 48  1  0
 15 49  1  0
 17 50  1  0
 18 51  1  0
 21 52  1  0
 24 53  1  0
 24 54  1  0
 25 55  1  0
 27 56  1  0
 28 57  1  0
 29 58  1  0
 30 59  1  0
 32 60  1  0
 34 61  1  0
 38 62  1  0
 41 63  1  0
 41 64  1  0
M  CHG  3   5  -1  16   1  19  -1
M  END
>  <EmbedRMS>  (297) 
0.08883937770922269

$$$$

     RDKit          3D

 64 67  0  0  0  0  0  0  0  0999 V2000
   10.2808   43.7741   33.8125 C   0  0  0  0  0  0  0  0  0  0  0  0
   11.4066   43.5885   34.3616 O   0  0  0  0  0  0  0  0  0  0  0  0
    9.3638   42.7321   33.7048 O   0  0  0  0  0  0  0  0  0  0  0  0
    9.8862   41.2338   34.2835 P   0  0  0  0  0  5  0  0  0  0  0  0
   10.3696   41.4671   35.8735 O   0  0  0  0  0  1  0  0  0  0  0  0
    9.9650   45.1073   33.2320 C   0  0  2  0  0  0  0  0  0  0  0  0
   11.0676   46.0373   33.4867 N   0  0  0  0  0  0  0  0  0  0  0  0
    8.6021   45.6644   33.7118 C   0  0  0  0  0  0  0  0  0  0  0  0
    8.3978   45.6345   35.2013 C   0  0  0  0  0  0  0  0  0  0  0  0
    7.2899   44.9602   35.7239 O   0  0  0  0  0  0  0  0  0  0  0  0
    9.1790   46.2649   35.9644 O   0  0  0  0  0  0  0  0  0  0  0  0
    6.9895   44.9366   37.1159 C   0  0  0  0  0  0  0  0  0  0  0  0
    5.6438   44.2922   37.3304 C   0  0  0  0  0  0  0  0  0  0  0  0
    5.4834   42.8855   37.4522 C   0  0  0  0  0  0  0  0  0  0  0  0
    4.5105   45.1218   37.4084 C   0  0  0  0  0  0  0  0  0  0  0  0
    6.5912   41.9775   37.3217 N   0  0  0  0  0  4  0  0  0  0  0  0
    4.2032   42.3627   37.7085 C   0  0  0  0  0  0  0  0  0  0  0  0
    3.2463   44.5806   37.6453 C   0  0  0  0  0  0  0  0  0  0  0  0
    6.5766   40.7738   37.9883 O   0  0  0  0  0  1  0  0  0  0  0  0
    7.4805   42.1804   36.4709 O   0  0  0  0  0  0  0  0  0  0  0  0
    3.0943   43.2046   37.8032 C   0  0  0  0  0  0  0  0  0  0  0  0
    8.8094   40.1901   34.2080 O   0  0  0  0  0  0  0  0  0  0  0  0
   11.2387   40.7922   33.3670 O   0  0  0  0  0  0  0  0  0  0  0  0
   10.9187   40.6897   31.9938 C   0  0  0  0  0  0  0  0  0  0  0  0
   11.5169   39.3801   31.4395 C   0  0  0  0  0  0  0  0  0  0  0  0
   12.7475   39.0863   32.0735 O   0  0  0  0  0  0  0  0  0  0  0  0
   10.6030   38.1891   31.6666 C   0  0  0  0  0  0  0  0  0  0  0  0
   12.9334   37.6798   32.0280 C   0  0  0  0  0  0  0  0  0  0  0  0
    9.6395   38.0776   30.6457 O   0  0  0  0  0  0  0  0  0  0  0  0
   11.5739   37.0154   31.7058 C   0  0  0  0  0  0  0  0  0  0  0  0
   13.4903   37.2179   33.3231 N   0  0  0  0  0  0  0  0  0  0  0  0
   11.6211   36.3376   30.4695 O   0  0  0  0  0  0  0  0  0  0  0  0
   14.4761   36.3274   33.5725 C   0  0  0  0  0  0  0  0  0  0  0  0
   13.1178   37.6317   34.5684 C   0  0  0  0  0  0  0  0  0  0  0  0
   15.2063   35.6139   32.6737 N   0  0  0  0  0  0  0  0  0  0  0  0
   14.6733   36.2278   34.9180 C   0  0  0  0  0  0  0  0  0  0  0  0
   13.8225   37.0459   35.5779 N   0  0  0  0  0  0  0  0  0  0  0  0
   16.1636   34.7595   33.1546 C   0  0  0  0  0  0  0  0  0  0  0  0
   15.6515   35.3494   35.4129 C   0  0  0  0  0  0  0  0  0  0  0  0
   16.3790   34.6311   34.5041 N   0  0  0  0  0  0  0  0  0  0  0  0
   15.9001   35.1935   36.8088 N   0  0  0  0  0  0  0  0  0  0  0  0
    9.8948   44.9667   32.1309 H   0  0  0  0  0  0  0  0  0  0  0  0
   11.1531   46.2332   34.5090 H   0  0  0  0  0  0  0  0  0  0  0  0
   10.8627   46.9444   33.0079 H   0  0  0  0  0  0  0  0  0  0  0  0
    8.4783   46.7093   33.3550 H   0  0  0  0  0  0  0  0  0  0  0  0
    7.7930   45.0688   33.2352 H   0  0  0  0  0  0  0  0  0  0  0  0
    6.9791   45.9767   37.5112 H   0  0  0  0  0  0  0  0  0  0  0  0
    7.7823   44.3903   37.6700 H   0  0  0  0  0  0  0  0  0  0  0  0
    4.6068   46.1950   37.2969 H   0  0  0  0  0  0  0  0  0  0  0  0
    4.0584   41.2949   37.8129 H   0  0  0  0  0  0  0  0  0  0  0  0
    2.3834   45.2307   37.7113 H   0  0  0  0  0  0  0  0  0  0  0  0
    2.1131   42.7876   37.9903 H   0  0  0  0  0  0  0  0  0  0  0  0
    9.8306   40.7393   31.7546 H   0  0  0  0  0  0  0  0  0  0  0  0
   11.3995   41.5437   31.4706 H   0  0  0  0  0  0  0  0  0  0  0  0
   11.6982   39.5038   30.3468 H   0  0  0  0  0  0  0  0  0  0  0  0
   10.1089   38.2633   32.6650 H   0  0  0  0  0  0  0  0  0  0  0  0
   13.6655   37.4544   31.2207 H   0  0  0  0  0  0  0  0  0  0  0  0
    8.8960   38.6893   30.8856 H   0  0  0  0  0  0  0  0  0  0  0  0
   11.2845   36.3060   32.5176 H   0  0  0  0  0  0  0  0  0  0  0  0
   10.8524   35.7094   30.4590 H   0  0  0  0  0  0  0  0  0  0  0  0
   12.3352   38.3588   34.7440 H   0  0  0  0  0  0  0  0  0  0  0  0
   16.7569   34.1788   32.4619 H   0  0  0  0  0  0  0  0  0  0  0  0
   16.6360   34.5317   37.1413 H   0  0  0  0  0  0  0  0  0  0  0  0
   15.3529   35.7359   37.5136 H   0  0  0  0  0  0  0  0  0  0  0  0
  1  2  2  0
  1  3  1  0
  3  4  1  0
  4  5  1  0
  6  1  1  0
  7  6  1  0
  6  8  1  0
  8  9  1  0
  9 10  1  0
  9 11  2  0
 10 12  1  0
 12 13  1  0
 13 14  2  0
 15 13  1  0
 14 16  1  0
 14 17  1  0
 18 15  2  0
 16 19  1  0
 16 20  2  0
 17 21  2  0
 21 18  1  0
  4 22  2  0
  4 23  1  0
 24 23  1  0
 24 25  1  0
 25 26  1  0
 25 27  1  0
 26 28  1  0
 27 29  1  0
 27 30  1  0
 30 28  1  0
 28 31  1  0
 30 32  1  0
 33 31  1  0
 34 31  1  0
 35 33  2  0
 33 36  1  0
 37 34  2  0
 38 35  1  0
 36 39  2  0
 36 37  1  0
 40 38  2  0
 40 39  1  0
 39 41  1  0
  6 42  1  6
  7 43  1  0
  7 44  1  0
  8 45  1  0
  8 46  1  0
 12 47  1  0
 12 48  1  0
 15 49  1  0
 17 50  1  0
 18 51  1  0
 21 52  1  0
 24 53  1  0
 24 54  1  0
 25 55  1  0
 27 56  1  0
 28 57  1  0
 29 58  1  0
 30 59  1  0
 32 60  1  0
 34 61  1  0
 38 62  1  0
 41 63  1  0
 41 64  1  0
M  CHG  3   5  -1  16   1  19  -1
M  END
>  <EmbedRMS>  (298) 
0.08914499283206657

$$$$

     RDKit          3D

 64 67  0  0  0  0  0  0  0  0999 V2000
   10.2862   43.7711   33.8100 C   0  0  0  0  0  0  0  0  0  0  0  0
   11.4100   43.5818   34.3616 O   0  0  0  0  0  0  0  0  0  0  0  0
    9.3668   42.7309   33.7019 O   0  0  0  0  0  0  0  0  0  0  0  0
    9.8845   41.2330   34.2841 P   0  0  0  0  0  5  0  0  0  0  0  0
   10.3656   41.4677   35.8746 O   0  0  0  0  0  1  0  0  0  0  0  0
    9.9608   45.1124   33.2472 C   0  0  2  0  0  0  0  0  0  0  0  0
   11.0655   46.0475   33.4747 N   0  0  0  0  0  0  0  0  0  0  0  0
    8.6648   45.6574   33.8709 C   0  0  0  0  0  0  0  0  0  0  0  0
    8.2728   46.9611   33.2480 C   0  0  0  0  0  0  0  0  0  0  0  0
    8.6110   48.1602   33.8860 O   0  0  0  0  0  0  0  0  0  0  0  0
    7.6733   46.9685   32.1380 O   0  0  0  0  0  0  0  0  0  0  0  0
    8.3351   49.4442   33.3264 C   0  0  0  0  0  0  0  0  0  0  0  0
    9.2264   49.7235   32.1349 C   0  0  0  0  0  0  0  0  0  0  0  0
    8.7514   50.3922   30.9755 C   0  0  0  0  0  0  0  0  0  0  0  0
   10.5727   49.3154   32.1846 C   0  0  0  0  0  0  0  0  0  0  0  0
    7.4244   50.9386   30.9044 N   0  0  0  0  0  4  0  0  0  0  0  0
    9.6073   50.5438   29.8708 C   0  0  0  0  0  0  0  0  0  0  0  0
   11.4127   49.4928   31.0846 C   0  0  0  0  0  0  0  0  0  0  0  0
    6.7514   50.9491   29.7044 O   0  0  0  0  0  1  0  0  0  0  0  0
    6.9670   51.6038   31.8565 O   0  0  0  0  0  0  0  0  0  0  0  0
   10.9272   50.0939   29.9251 C   0  0  0  0  0  0  0  0  0  0  0  0
    8.8069   40.1904   34.2081 O   0  0  0  0  0  0  0  0  0  0  0  0
   11.2365   40.7897   33.3680 O   0  0  0  0  0  0  0  0  0  0  0  0
   10.9151   40.6881   31.9949 C   0  0  0  0  0  0  0  0  0  0  0  0
   11.5260   39.3871   31.4364 C   0  0  0  0  0  0  0  0  0  0  0  0
   12.7491   39.0893   32.0819 O   0  0  0  0  0  0  0  0  0  0  0  0
   10.6123   38.1893   31.6461 C   0  0  0  0  0  0  0  0  0  0  0  0
   12.9373   37.6827   32.0301 C   0  0  0  0  0  0  0  0  0  0  0  0
    9.6150   38.0838   30.6538 O   0  0  0  0  0  0  0  0  0  0  0  0
   11.5793   37.0136   31.7013 C   0  0  0  0  0  0  0  0  0  0  0  0
   13.4906   37.2170   33.3242 N   0  0  0  0  0  0  0  0  0  0  0  0
   11.6217   36.3252   30.4725 O   0  0  0  0  0  0  0  0  0  0  0  0
   14.4763   36.3266   33.5731 C   0  0  0  0  0  0  0  0  0  0  0  0
   13.1181   37.6308   34.5694 C   0  0  0  0  0  0  0  0  0  0  0  0
   15.2065   35.6137   32.6740 N   0  0  0  0  0  0  0  0  0  0  0  0
   14.6735   36.2270   34.9185 C   0  0  0  0  0  0  0  0  0  0  0  0
   13.8229   37.0451   35.5787 N   0  0  0  0  0  0  0  0  0  0  0  0
   16.1639   34.7593   33.1547 C   0  0  0  0  0  0  0  0  0  0  0  0
   15.6519   35.3489   35.4132 C   0  0  0  0  0  0  0  0  0  0  0  0
   16.3794   34.6308   34.5042 N   0  0  0  0  0  0  0  0  0  0  0  0
   15.9006   35.1931   36.8090 N   0  0  0  0  0  0  0  0  0  0  0  0
    9.8106   44.9950   32.1509 H   0  0  0  0  0  0  0  0  0  0  0  0
   11.9217   45.7033   32.9813 H   0  0  0  0  0  0  0  0  0  0  0  0
   11.2756   46.1188   34.4979 H   0  0  0  0  0  0  0  0  0  0  0  0
    7.8362   44.9308   33.7209 H   0  0  0  0  0  0  0  0  0  0  0  0
    8.7982   45.7976   34.9661 H   0  0  0  0  0  0  0  0  0  0  0  0
    8.5243   50.2184   34.0988 H   0  0  0  0  0  0  0  0  0  0  0  0
    7.2589   49.4809   33.0579 H   0  0  0  0  0  0  0  0  0  0  0  0
   10.9717   48.8444   33.0739 H   0  0  0  0  0  0  0  0  0  0  0  0
    9.2590   51.0392   28.9733 H   0  0  0  0  0  0  0  0  0  0  0  0
   12.4415   49.1596   31.1307 H   0  0  0  0  0  0  0  0  0  0  0  0
   11.5796   50.2275   29.0718 H   0  0  0  0  0  0  0  0  0  0  0  0
    9.8250   40.7180   31.7578 H   0  0  0  0  0  0  0  0  0  0  0  0
   11.3825   41.5504   31.4729 H   0  0  0  0  0  0  0  0  0  0  0  0
   11.7290   39.5287   30.3504 H   0  0  0  0  0  0  0  0  0  0  0  0
   10.1139   38.2718   32.6379 H   0  0  0  0  0  0  0  0  0  0  0  0
   13.6726   37.4637   31.2240 H   0  0  0  0  0  0  0  0  0  0  0  0
   10.0535   38.1085   29.7638 H   0  0  0  0  0  0  0  0  0  0  0  0
   11.2646   36.3134   32.5107 H   0  0  0  0  0  0  0  0  0  0  0  0
   12.1550   35.5032   30.6315 H   0  0  0  0  0  0  0  0  0  0  0  0
   12.3362   38.3586   34.7450 H   0  0  0  0  0  0  0  0  0  0  0  0
   16.7573   34.1788   32.4619 H   0  0  0  0  0  0  0  0  0  0  0  0
   16.6366   34.5314   37.1415 H   0  0  0  0  0  0  0  0  0  0  0  0
   15.3533   35.7353   37.5139 H   0  0  0  0  0  0  0  0  0  0  0  0
  1  2  2  0
  1  3  1  0
  3  4  1  0
  4  5  1  0
  6  1  1  0
  7  6  1  0
  6  8  1  0
  8  9  1  0
  9 10  1  0
  9 11  2  0
 10 12  1  0
 12 13  1  0
 13 14  2  0
 15 13  1  0
 14 16  1  0
 14 17  1  0
 18 15  2  0
 16 19  1  0
 16 20  2  0
 17 21  2  0
 21 18  1  0
  4 22  2  0
  4 23  1  0
 24 23  1  0
 24 25  1  0
 25 26  1  0
 25 27  1  0
 26 28  1  0
 27 29  1  0
 27 30  1  0
 30 28  1  0
 28 31  1  0
 30 32  1  0
 33 31  1  0
 34 31  1  0
 35 33  2  0
 33 36  1  0
 37 34  2  0
 38 35  1  0
 36 39  2  0
 36 37  1  0
 40 38  2  0
 40 39  1  0
 39 41  1  0
  6 42  1  6
  7 43  1  0
  7 44  1  0
  8 45  1  0
  8 46  1  0
 12 47  1  0
 12 48  1  0
 15 49  1  0
 17 50  1  0
 18 51  1  0
 21 52  1  0
 24 53  1  0
 24 54  1  0
 25 55  1  0
 27 56  1  0
 28 57  1  0
 29 58  1  0
 30 59  1  0
 32 60  1  0
 34 61  1  0
 38 62  1  0
 41 63  1  0
 41 64  1  0
M  CHG  3   5  -1  16   1  19  -1
M  END
>  <EmbedRMS>  (299) 
0.0884213634982588

$$$$

     RDKit          3D

 64 67  0  0  0  0  0  0  0  0999 V2000
   10.2871   43.7713   33.8027 C   0  0  0  0  0  0  0  0  0  0  0  0
   11.4122   43.5867   34.3534 O   0  0  0  0  0  0  0  0  0  0  0  0
    9.3676   42.7307   33.6995 O   0  0  0  0  0  0  0  0  0  0  0  0
    9.8851   41.2344   34.2852 P   0  0  0  0  0  5  0  0  0  0  0  0
   10.3644   41.4712   35.8758 O   0  0  0  0  0  1  0  0  0  0  0  0
    9.9563   45.1117   33.2476 C   0  0  2  0  0  0  0  0  0  0  0  0
   11.0662   46.0370   33.4868 N   0  0  0  0  0  0  0  0  0  0  0  0
    8.6222   45.6560   33.8077 C   0  0  0  0  0  0  0  0  0  0  0  0
    8.6217   45.7850   35.3032 C   0  0  0  0  0  0  0  0  0  0  0  0
    8.5530   44.6306   36.0907 O   0  0  0  0  0  0  0  0  0  0  0  0
    8.7097   46.9253   35.8344 O   0  0  0  0  0  0  0  0  0  0  0  0
    8.4835   44.6451   37.5142 C   0  0  0  0  0  0  0  0  0  0  0  0
    7.0896   45.0006   37.9699 C   0  0  0  0  0  0  0  0  0  0  0  0
    6.0378   44.0457   38.0024 C   0  0  0  0  0  0  0  0  0  0  0  0
    6.8344   46.3193   38.3881 C   0  0  0  0  0  0  0  0  0  0  0  0
    6.2312   42.6847   37.5739 N   0  0  0  0  0  4  0  0  0  0  0  0
    4.7747   44.4369   38.4842 C   0  0  0  0  0  0  0  0  0  0  0  0
    5.5700   46.6891   38.8475 C   0  0  0  0  0  0  0  0  0  0  0  0
    6.9833   42.3980   36.4588 O   0  0  0  0  0  1  0  0  0  0  0  0
    5.5831   41.7627   38.1112 O   0  0  0  0  0  0  0  0  0  0  0  0
    4.5433   45.7489   38.8994 C   0  0  0  0  0  0  0  0  0  0  0  0
    8.8075   40.1916   34.2091 O   0  0  0  0  0  0  0  0  0  0  0  0
   11.2377   40.7900   33.3706 O   0  0  0  0  0  0  0  0  0  0  0  0
   10.9187   40.6904   31.9969 C   0  0  0  0  0  0  0  0  0  0  0  0
   11.5174   39.3825   31.4415 C   0  0  0  0  0  0  0  0  0  0  0  0
   12.7494   39.0893   32.0757 O   0  0  0  0  0  0  0  0  0  0  0  0
   10.6036   38.1899   31.6660 C   0  0  0  0  0  0  0  0  0  0  0  0
   12.9401   37.6834   32.0276 C   0  0  0  0  0  0  0  0  0  0  0  0
    9.6376   38.0786   30.6475 O   0  0  0  0  0  0  0  0  0  0  0  0
   11.5803   37.0204   31.6937 C   0  0  0  0  0  0  0  0  0  0  0  0
   13.4901   37.2177   33.3237 N   0  0  0  0  0  0  0  0  0  0  0  0
   11.6118   36.3194   30.4680 O   0  0  0  0  0  0  0  0  0  0  0  0
   14.4758   36.3271   33.5731 C   0  0  0  0  0  0  0  0  0  0  0  0
   13.1175   37.6317   34.5688 C   0  0  0  0  0  0  0  0  0  0  0  0
   15.2064   35.6142   32.6742 N   0  0  0  0  0  0  0  0  0  0  0  0
   14.6729   36.2274   34.9184 C   0  0  0  0  0  0  0  0  0  0  0  0
   13.8221   37.0457   35.5784 N   0  0  0  0  0  0  0  0  0  0  0  0
   16.1637   34.7597   33.1549 C   0  0  0  0  0  0  0  0  0  0  0  0
   15.6514   35.3493   35.4133 C   0  0  0  0  0  0  0  0  0  0  0  0
   16.3791   34.6312   34.5044 N   0  0  0  0  0  0  0  0  0  0  0  0
   15.9001   35.1935   36.8091 N   0  0  0  0  0  0  0  0  0  0  0  0
    9.8387   44.9899   32.1484 H   0  0  0  0  0  0  0  0  0  0  0  0
   10.8571   46.9412   33.0043 H   0  0  0  0  0  0  0  0  0  0  0  0
   11.1486   46.2426   34.5093 H   0  0  0  0  0  0  0  0  0  0  0  0
    8.4071   46.6451   33.3474 H   0  0  0  0  0  0  0  0  0  0  0  0
    7.7936   44.9766   33.5123 H   0  0  0  0  0  0  0  0  0  0  0  0
    9.2394   45.3503   37.9250 H   0  0  0  0  0  0  0  0  0  0  0  0
    8.7572   43.6408   37.8997 H   0  0  0  0  0  0  0  0  0  0  0  0
    7.6205   47.0639   38.3698 H   0  0  0  0  0  0  0  0  0  0  0  0
    3.9594   43.7255   38.5229 H   0  0  0  0  0  0  0  0  0  0  0  0
    5.3879   47.7063   39.1695 H   0  0  0  0  0  0  0  0  0  0  0  0
    3.5643   46.0374   39.2597 H   0  0  0  0  0  0  0  0  0  0  0  0
   11.3996   41.5455   31.4757 H   0  0  0  0  0  0  0  0  0  0  0  0
    9.8308   40.7396   31.7567 H   0  0  0  0  0  0  0  0  0  0  0  0
   11.6987   39.5095   30.3492 H   0  0  0  0  0  0  0  0  0  0  0  0
   10.1129   38.2587   32.6665 H   0  0  0  0  0  0  0  0  0  0  0  0
   13.6800   37.4628   31.2266 H   0  0  0  0  0  0  0  0  0  0  0  0
    8.8953   38.6909   30.8892 H   0  0  0  0  0  0  0  0  0  0  0  0
   11.2831   36.3060   32.4929 H   0  0  0  0  0  0  0  0  0  0  0  0
   11.8859   36.9590   29.7593 H   0  0  0  0  0  0  0  0  0  0  0  0
   12.3360   38.3600   34.7442 H   0  0  0  0  0  0  0  0  0  0  0  0
   16.7572   34.1793   32.4621 H   0  0  0  0  0  0  0  0  0  0  0  0
   15.3528   35.7356   37.5140 H   0  0  0  0  0  0  0  0  0  0  0  0
   16.6362   34.5318   37.1416 H   0  0  0  0  0  0  0  0  0  0  0  0
  1  2  2  0
  1  3  1  0
  3  4  1  0
  4  5  1  0
  6  1  1  0
  7  6  1  0
  6  8  1  0
  8  9  1  0
  9 10  1  0
  9 11  2  0
 10 12  1  0
 12 13  1  0
 13 14  2  0
 15 13  1  0
 14 16  1  0
 14 17  1  0
 18 15  2  0
 16 19  1  0
 16 20  2  0
 17 21  2  0
 21 18  1  0
  4 22  2  0
  4 23  1  0
 24 23  1  0
 24 25  1  0
 25 26  1  0
 25 27  1  0
 26 28  1  0
 27 29  1  0
 27 30  1  0
 30 28  1  0
 28 31  1  0
 30 32  1  0
 33 31  1  0
 34 31  1  0
 35 33  2  0
 33 36  1  0
 37 34  2  0
 38 35  1  0
 36 39  2  0
 36 37  1  0
 40 38  2  0
 40 39  1  0
 39 41  1  0
  6 42  1  6
  7 43  1  0
  7 44  1  0
  8 45  1  0
  8 46  1  0
 12 47  1  0
 12 48  1  0
 15 49  1  0
 17 50  1  0
 18 51  1  0
 21 52  1  0
 24 53  1  0
 24 54  1  0
 25 55  1  0
 27 56  1  0
 28 57  1  0
 29 58  1  0
 30 59  1  0
 32 60  1  0
 34 61  1  0
 38 62  1  0
 41 63  1  0
 41 64  1  0
M  CHG  3   5  -1  16   1  19  -1
M  END
>  <EmbedRMS>  (300) 
0.08824938239490326

$$$$

     RDKit          3D

 64 67  0  0  0  0  0  0  0  0999 V2000
   10.2848   43.7726   33.8068 C   0  0  0  0  0  0  0  0  0  0  0  0
   11.4105   43.5874   34.3562 O   0  0  0  0  0  0  0  0  0  0  0  0
    9.3662   42.7315   33.7018 O   0  0  0  0  0  0  0  0  0  0  0  0
    9.8848   41.2345   34.2850 P   0  0  0  0  0  5  0  0  0  0  0  0
   10.3657   41.4699   35.8753 O   0  0  0  0  0  1  0  0  0  0  0  0
    9.9582   45.1107   33.2438 C   0  0  2  0  0  0  0  0  0  0  0  0
   11.0675   46.0367   33.4848 N   0  0  0  0  0  0  0  0  0  0  0  0
    8.6197   45.6579   33.7894 C   0  0  0  0  0  0  0  0  0  0  0  0
    8.6102   45.8078   35.2821 C   0  0  0  0  0  0  0  0  0  0  0  0
    8.9702   47.0340   35.8516 O   0  0  0  0  0  0  0  0  0  0  0  0
    8.3114   44.8210   36.0082 O   0  0  0  0  0  0  0  0  0  0  0  0
    8.9596   47.2872   37.2551 C   0  0  0  0  0  0  0  0  0  0  0  0
    7.5445   47.4433   37.7588 C   0  0  0  0  0  0  0  0  0  0  0  0
    6.8154   48.6536   37.6074 C   0  0  0  0  0  0  0  0  0  0  0  0
    6.9416   46.3559   38.4175 C   0  0  0  0  0  0  0  0  0  0  0  0
    7.3726   49.8001   36.9380 N   0  0  0  0  0  4  0  0  0  0  0  0
    5.5177   48.7416   38.1453 C   0  0  0  0  0  0  0  0  0  0  0  0
    5.6481   46.4604   38.9296 C   0  0  0  0  0  0  0  0  0  0  0  0
    8.1263   49.6520   35.7974 O   0  0  0  0  0  1  0  0  0  0  0  0
    7.0416   50.9512   37.2905 O   0  0  0  0  0  0  0  0  0  0  0  0
    4.9388   47.6519   38.7968 C   0  0  0  0  0  0  0  0  0  0  0  0
    8.8076   40.1913   34.2091 O   0  0  0  0  0  0  0  0  0  0  0  0
   11.2366   40.7909   33.3691 O   0  0  0  0  0  0  0  0  0  0  0  0
   10.9151   40.6898   31.9961 C   0  0  0  0  0  0  0  0  0  0  0  0
   11.5268   39.3899   31.4375 C   0  0  0  0  0  0  0  0  0  0  0  0
   12.7506   39.0917   32.0840 O   0  0  0  0  0  0  0  0  0  0  0  0
   10.6121   38.1916   31.6452 C   0  0  0  0  0  0  0  0  0  0  0  0
   12.9429   37.6854   32.0295 C   0  0  0  0  0  0  0  0  0  0  0  0
    9.6069   38.0858   30.6603 O   0  0  0  0  0  0  0  0  0  0  0  0
   11.5845   37.0186   31.6880 C   0  0  0  0  0  0  0  0  0  0  0  0
   13.4899   37.2164   33.3250 N   0  0  0  0  0  0  0  0  0  0  0  0
   11.6202   36.3063   30.4693 O   0  0  0  0  0  0  0  0  0  0  0  0
   14.4759   36.3263   33.5738 C   0  0  0  0  0  0  0  0  0  0  0  0
   13.1176   37.6308   34.5699 C   0  0  0  0  0  0  0  0  0  0  0  0
   15.2065   35.6139   32.6746 N   0  0  0  0  0  0  0  0  0  0  0  0
   14.6731   36.2267   34.9191 C   0  0  0  0  0  0  0  0  0  0  0  0
   13.8224   37.0450   35.5792 N   0  0  0  0  0  0  0  0  0  0  0  0
   16.1640   34.7596   33.1551 C   0  0  0  0  0  0  0  0  0  0  0  0
   15.6517   35.3489   35.4136 C   0  0  0  0  0  0  0  0  0  0  0  0
   16.3795   34.6310   34.5045 N   0  0  0  0  0  0  0  0  0  0  0  0
   15.9006   35.1931   36.8094 N   0  0  0  0  0  0  0  0  0  0  0  0
    9.8488   44.9837   32.1444 H   0  0  0  0  0  0  0  0  0  0  0  0
   11.1606   46.2296   34.5086 H   0  0  0  0  0  0  0  0  0  0  0  0
   10.8531   46.9460   33.0144 H   0  0  0  0  0  0  0  0  0  0  0  0
    8.4112   46.6464   33.3263 H   0  0  0  0  0  0  0  0  0  0  0  0
    7.7915   44.9805   33.4866 H   0  0  0  0  0  0  0  0  0  0  0  0
    9.5320   48.2160   37.4597 H   0  0  0  0  0  0  0  0  0  0  0  0
    9.4936   46.4707   37.7895 H   0  0  0  0  0  0  0  0  0  0  0  0
    7.4787   45.4244   38.5465 H   0  0  0  0  0  0  0  0  0  0  0  0
    4.9447   49.6548   38.0457 H   0  0  0  0  0  0  0  0  0  0  0  0
    5.1972   45.6168   39.4362 H   0  0  0  0  0  0  0  0  0  0  0  0
    3.9368   47.7318   39.1983 H   0  0  0  0  0  0  0  0  0  0  0  0
    9.8249   40.7189   31.7591 H   0  0  0  0  0  0  0  0  0  0  0  0
   11.3818   41.5527   31.4745 H   0  0  0  0  0  0  0  0  0  0  0  0
   11.7317   39.5339   30.3522 H   0  0  0  0  0  0  0  0  0  0  0  0
   10.1213   38.2681   32.6413 H   0  0  0  0  0  0  0  0  0  0  0  0
   13.6882   37.4710   31.2319 H   0  0  0  0  0  0  0  0  0  0  0  0
   10.0257   38.1751   29.7656 H   0  0  0  0  0  0  0  0  0  0  0  0
   11.2796   36.3124   32.4915 H   0  0  0  0  0  0  0  0  0  0  0  0
   11.9872   36.9100   29.7715 H   0  0  0  0  0  0  0  0  0  0  0  0
   12.3365   38.3596   34.7454 H   0  0  0  0  0  0  0  0  0  0  0  0
   16.7576   34.1794   32.4622 H   0  0  0  0  0  0  0  0  0  0  0  0
   15.3532   35.7351   37.5143 H   0  0  0  0  0  0  0  0  0  0  0  0
   16.6368   34.5315   37.1418 H   0  0  0  0  0  0  0  0  0  0  0  0
  1  2  2  0
  1  3  1  0
  3  4  1  0
  4  5  1  0
  6  1  1  0
  7  6  1  0
  6  8  1  0
  8  9  1  0
  9 10  1  0
  9 11  2  0
 10 12  1  0
 12 13  1  0
 13 14  2  0
 15 13  1  0
 14 16  1  0
 14 17  1  0
 18 15  2  0
 16 19  1  0
 16 20  2  0
 17 21  2  0
 21 18  1  0
  4 22  2  0
  4 23  1  0
 24 23  1  0
 24 25  1  0
 25 26  1  0
 25 27  1  0
 26 28  1  0
 27 29  1  0
 27 30  1  0
 30 28  1  0
 28 31  1  0
 30 32  1  0
 33 31  1  0
 34 31  1  0
 35 33  2  0
 33 36  1  0
 37 34  2  0
 38 35  1  0
 36 39  2  0
 36 37  1  0
 40 38  2  0
 40 39  1  0
 39 41  1  0
  6 42  1  6
  7 43  1  0
  7 44  1  0
  8 45  1  0
  8 46  1  0
 12 47  1  0
 12 48  1  0
 15 49  1  0
 17 50  1  0
 18 51  1  0
 21 52  1  0
 24 53  1  0
 24 54  1  0
 25 55  1  0
 27 56  1  0
 28 57  1  0
 29 58  1  0
 30 59  1  0
 32 60  1  0
 34 61  1  0
 38 62  1  0
 41 63  1  0
 41 64  1  0
M  CHG  3   5  -1  16   1  19  -1
M  END
>  <EmbedRMS>  (301) 
0.0868707541630313

$$$$

     RDKit          3D

 64 67  0  0  0  0  0  0  0  0999 V2000
   10.2886   43.7704   33.8000 C   0  0  0  0  0  0  0  0  0  0  0  0
   11.4106   43.5872   34.3574 O   0  0  0  0  0  0  0  0  0  0  0  0
    9.3686   42.7303   33.6975 O   0  0  0  0  0  0  0  0  0  0  0  0
    9.8851   41.2343   34.2849 P   0  0  0  0  0  5  0  0  0  0  0  0
   10.3642   41.4717   35.8755 O   0  0  0  0  0  1  0  0  0  0  0  0
    9.9522   45.1151   33.2554 C   0  0  2  0  0  0  0  0  0  0  0  0
   11.0689   46.0347   33.4806 N   0  0  0  0  0  0  0  0  0  0  0  0
    8.6598   45.6614   33.8963 C   0  0  0  0  0  0  0  0  0  0  0  0
    8.7948   45.8645   35.3771 C   0  0  0  0  0  0  0  0  0  0  0  0
    8.8313   44.7498   36.2220 O   0  0  0  0  0  0  0  0  0  0  0  0
    8.8919   47.0318   35.8453 O   0  0  0  0  0  0  0  0  0  0  0  0
    8.8832   44.8442   37.6431 C   0  0  0  0  0  0  0  0  0  0  0  0
    7.5541   45.3067   38.1927 C   0  0  0  0  0  0  0  0  0  0  0  0
    6.3335   44.6478   37.8776 C   0  0  0  0  0  0  0  0  0  0  0  0
    7.5256   46.4518   39.0096 C   0  0  0  0  0  0  0  0  0  0  0  0
    6.2906   43.4648   37.0577 N   0  0  0  0  0  4  0  0  0  0  0  0
    5.1255   45.1783   38.3645 C   0  0  0  0  0  0  0  0  0  0  0  0
    6.3164   46.9509   39.4947 C   0  0  0  0  0  0  0  0  0  0  0  0
    5.1824   43.2058   36.2841 O   0  0  0  0  0  1  0  0  0  0  0  0
    7.1715   42.5861   37.1550 O   0  0  0  0  0  0  0  0  0  0  0  0
    5.1186   46.3184   39.1691 C   0  0  0  0  0  0  0  0  0  0  0  0
    8.8074   40.1917   34.2090 O   0  0  0  0  0  0  0  0  0  0  0  0
   11.2378   40.7894   33.3707 O   0  0  0  0  0  0  0  0  0  0  0  0
   10.9190   40.6904   31.9969 C   0  0  0  0  0  0  0  0  0  0  0  0
   11.5175   39.3824   31.4414 C   0  0  0  0  0  0  0  0  0  0  0  0
   12.7496   39.0892   32.0755 O   0  0  0  0  0  0  0  0  0  0  0  0
   10.6036   38.1899   31.6660 C   0  0  0  0  0  0  0  0  0  0  0  0
   12.9401   37.6833   32.0276 C   0  0  0  0  0  0  0  0  0  0  0  0
    9.6376   38.0785   30.6475 O   0  0  0  0  0  0  0  0  0  0  0  0
   11.5803   37.0204   31.6937 C   0  0  0  0  0  0  0  0  0  0  0  0
   13.4902   37.2178   33.3237 N   0  0  0  0  0  0  0  0  0  0  0  0
   11.6117   36.3193   30.4680 O   0  0  0  0  0  0  0  0  0  0  0  0
   14.4759   36.3272   33.5731 C   0  0  0  0  0  0  0  0  0  0  0  0
   13.1176   37.6318   34.5688 C   0  0  0  0  0  0  0  0  0  0  0  0
   15.2064   35.6142   32.6742 N   0  0  0  0  0  0  0  0  0  0  0  0
   14.6729   36.2274   34.9184 C   0  0  0  0  0  0  0  0  0  0  0  0
   13.8221   37.0457   35.5783 N   0  0  0  0  0  0  0  0  0  0  0  0
   16.1637   34.7597   33.1549 C   0  0  0  0  0  0  0  0  0  0  0  0
   15.6513   35.3493   35.4133 C   0  0  0  0  0  0  0  0  0  0  0  0
   16.3791   34.6312   34.5044 N   0  0  0  0  0  0  0  0  0  0  0  0
   15.9001   35.1935   36.8091 N   0  0  0  0  0  0  0  0  0  0  0  0
    9.7804   45.0097   32.1605 H   0  0  0  0  0  0  0  0  0  0  0  0
   10.8044   46.9744   33.1045 H   0  0  0  0  0  0  0  0  0  0  0  0
   11.8796   45.7186   32.8988 H   0  0  0  0  0  0  0  0  0  0  0  0
    8.3884   46.6246   33.4113 H   0  0  0  0  0  0  0  0  0  0  0  0
    7.8198   44.9584   33.7067 H   0  0  0  0  0  0  0  0  0  0  0  0
    9.7124   45.5252   37.9364 H   0  0  0  0  0  0  0  0  0  0  0  0
    9.1296   43.8494   38.0675 H   0  0  0  0  0  0  0  0  0  0  0  0
    8.4420   46.9699   39.2644 H   0  0  0  0  0  0  0  0  0  0  0  0
    4.1836   44.6971   38.1334 H   0  0  0  0  0  0  0  0  0  0  0  0
    6.3080   47.8348   40.1195 H   0  0  0  0  0  0  0  0  0  0  0  0
    4.1816   46.7104   39.5434 H   0  0  0  0  0  0  0  0  0  0  0  0
   11.4003   41.5455   31.4761 H   0  0  0  0  0  0  0  0  0  0  0  0
    9.8312   40.7398   31.7565 H   0  0  0  0  0  0  0  0  0  0  0  0
   11.6986   39.5096   30.3491 H   0  0  0  0  0  0  0  0  0  0  0  0
   10.1129   38.2587   32.6664 H   0  0  0  0  0  0  0  0  0  0  0  0
   13.6800   37.4626   31.2265 H   0  0  0  0  0  0  0  0  0  0  0  0
    8.8954   38.6911   30.8891 H   0  0  0  0  0  0  0  0  0  0  0  0
   11.2830   36.3060   32.4929 H   0  0  0  0  0  0  0  0  0  0  0  0
   11.8859   36.9590   29.7593 H   0  0  0  0  0  0  0  0  0  0  0  0
   12.3361   38.3601   34.7441 H   0  0  0  0  0  0  0  0  0  0  0  0
   16.7573   34.1794   32.4621 H   0  0  0  0  0  0  0  0  0  0  0  0
   16.6362   34.5318   37.1416 H   0  0  0  0  0  0  0  0  0  0  0  0
   15.3528   35.7357   37.5139 H   0  0  0  0  0  0  0  0  0  0  0  0
  1  2  2  0
  1  3  1  0
  3  4  1  0
  4  5  1  0
  6  1  1  0
  7  6  1  0
  6  8  1  0
  8  9  1  0
  9 10  1  0
  9 11  2  0
 10 12  1  0
 12 13  1  0
 13 14  2  0
 15 13  1  0
 14 16  1  0
 14 17  1  0
 18 15  2  0
 16 19  1  0
 16 20  2  0
 17 21  2  0
 21 18  1  0
  4 22  2  0
  4 23  1  0
 24 23  1  0
 24 25  1  0
 25 26  1  0
 25 27  1  0
 26 28  1  0
 27 29  1  0
 27 30  1  0
 30 28  1  0
 28 31  1  0
 30 32  1  0
 33 31  1  0
 34 31  1  0
 35 33  2  0
 33 36  1  0
 37 34  2  0
 38 35  1  0
 36 39  2  0
 36 37  1  0
 40 38  2  0
 40 39  1  0
 39 41  1  0
  6 42  1  6
  7 43  1  0
  7 44  1  0
  8 45  1  0
  8 46  1  0
 12 47  1  0
 12 48  1  0
 15 49  1  0
 17 50  1  0
 18 51  1  0
 21 52  1  0
 24 53  1  0
 24 54  1  0
 25 55  1  0
 27 56  1  0
 28 57  1  0
 29 58  1  0
 30 59  1  0
 32 60  1  0
 34 61  1  0
 38 62  1  0
 41 63  1  0
 41 64  1  0
M  CHG  3   5  -1  16   1  19  -1
M  END
>  <EmbedRMS>  (302) 
0.08836915752940191

$$$$

     RDKit          3D

 64 67  0  0  0  0  0  0  0  0999 V2000
   10.2798   43.7741   33.8040 C   0  0  0  0  0  0  0  0  0  0  0  0
   11.4041   43.5900   34.3578 O   0  0  0  0  0  0  0  0  0  0  0  0
    9.3629   42.7308   33.7013 O   0  0  0  0  0  0  0  0  0  0  0  0
    9.8867   41.2349   34.2854 P   0  0  0  0  0  5  0  0  0  0  0  0
   10.3698   41.4726   35.8745 O   0  0  0  0  0  1  0  0  0  0  0  0
    9.9674   45.1068   33.2164 C   0  0  2  0  0  0  0  0  0  0  0  0
   11.0658   46.0299   33.5071 N   0  0  0  0  0  0  0  0  0  0  0  0
    8.6249   45.6631   33.7440 C   0  0  0  0  0  0  0  0  0  0  0  0
    7.4601   45.1140   32.9773 C   0  0  0  0  0  0  0  0  0  0  0  0
    6.6258   44.1557   33.5640 O   0  0  0  0  0  0  0  0  0  0  0  0
    7.2409   45.5271   31.8062 O   0  0  0  0  0  0  0  0  0  0  0  0
    5.4979   43.5900   32.8972 C   0  0  0  0  0  0  0  0  0  0  0  0
    5.9454   42.5402   31.9061 C   0  0  0  0  0  0  0  0  0  0  0  0
    6.0053   42.7743   30.5076 C   0  0  0  0  0  0  0  0  0  0  0  0
    6.4112   41.3154   32.4142 C   0  0  0  0  0  0  0  0  0  0  0  0
    5.4840   43.9748   29.9195 N   0  0  0  0  0  4  0  0  0  0  0  0
    6.5663   41.7952   29.6691 C   0  0  0  0  0  0  0  0  0  0  0  0
    6.9391   40.3433   31.5629 C   0  0  0  0  0  0  0  0  0  0  0  0
    4.1741   44.3310   30.1410 O   0  0  0  0  0  1  0  0  0  0  0  0
    6.1150   44.5414   29.0035 O   0  0  0  0  0  0  0  0  0  0  0  0
    7.0285   40.5878   30.1943 C   0  0  0  0  0  0  0  0  0  0  0  0
    8.8155   40.1861   34.2168 O   0  0  0  0  0  0  0  0  0  0  0  0
   11.2378   40.7934   33.3670 O   0  0  0  0  0  0  0  0  0  0  0  0
   10.9136   40.6875   31.9947 C   0  0  0  0  0  0  0  0  0  0  0  0
   11.5161   39.3806   31.4411 C   0  0  0  0  0  0  0  0  0  0  0  0
   12.7480   39.0890   32.0763 O   0  0  0  0  0  0  0  0  0  0  0  0
   10.6039   38.1888   31.6657 C   0  0  0  0  0  0  0  0  0  0  0  0
   12.9402   37.6832   32.0278 C   0  0  0  0  0  0  0  0  0  0  0  0
    9.6359   38.0939   30.6489 O   0  0  0  0  0  0  0  0  0  0  0  0
   11.5814   37.0187   31.6940 C   0  0  0  0  0  0  0  0  0  0  0  0
   13.4904   37.2178   33.3238 N   0  0  0  0  0  0  0  0  0  0  0  0
   11.6130   36.3183   30.4681 O   0  0  0  0  0  0  0  0  0  0  0  0
   14.4760   36.3271   33.5732 C   0  0  0  0  0  0  0  0  0  0  0  0
   13.1177   37.6317   34.5689 C   0  0  0  0  0  0  0  0  0  0  0  0
   15.2065   35.6141   32.6742 N   0  0  0  0  0  0  0  0  0  0  0  0
   14.6730   36.2274   34.9185 C   0  0  0  0  0  0  0  0  0  0  0  0
   13.8222   37.0457   35.5784 N   0  0  0  0  0  0  0  0  0  0  0  0
   16.1637   34.7596   33.1549 C   0  0  0  0  0  0  0  0  0  0  0  0
   15.6514   35.3492   35.4133 C   0  0  0  0  0  0  0  0  0  0  0  0
   16.3791   34.6311   34.5044 N   0  0  0  0  0  0  0  0  0  0  0  0
   15.9002   35.1934   36.8091 N   0  0  0  0  0  0  0  0  0  0  0  0
    9.9136   44.9808   32.1116 H   0  0  0  0  0  0  0  0  0  0  0  0
   10.9257   46.9033   32.9485 H   0  0  0  0  0  0  0  0  0  0  0  0
   11.0357   46.2997   34.5183 H   0  0  0  0  0  0  0  0  0  0  0  0
    8.5069   45.4394   34.8271 H   0  0  0  0  0  0  0  0  0  0  0  0
    8.6067   46.7696   33.6357 H   0  0  0  0  0  0  0  0  0  0  0  0
    4.8926   44.3955   32.4398 H   0  0  0  0  0  0  0  0  0  0  0  0
    4.8474   43.1091   33.6584 H   0  0  0  0  0  0  0  0  0  0  0  0
    6.3746   41.1187   33.4785 H   0  0  0  0  0  0  0  0  0  0  0  0
    6.6235   41.9601   28.6005 H   0  0  0  0  0  0  0  0  0  0  0  0
    7.2940   39.4043   31.9675 H   0  0  0  0  0  0  0  0  0  0  0  0
    7.4491   39.8374   29.5375 H   0  0  0  0  0  0  0  0  0  0  0  0
   11.3854   41.5443   31.4680 H   0  0  0  0  0  0  0  0  0  0  0  0
    9.8244   40.7244   31.7587 H   0  0  0  0  0  0  0  0  0  0  0  0
   11.6984   39.5075   30.3489 H   0  0  0  0  0  0  0  0  0  0  0  0
   10.1098   38.2742   32.6625 H   0  0  0  0  0  0  0  0  0  0  0  0
   13.6804   37.4635   31.2267 H   0  0  0  0  0  0  0  0  0  0  0  0
    8.9940   37.3952   30.9401 H   0  0  0  0  0  0  0  0  0  0  0  0
   11.2830   36.3053   32.4934 H   0  0  0  0  0  0  0  0  0  0  0  0
   11.8832   36.9592   29.7591 H   0  0  0  0  0  0  0  0  0  0  0  0
   12.3360   38.3599   34.7442 H   0  0  0  0  0  0  0  0  0  0  0  0
   16.7573   34.1792   32.4622 H   0  0  0  0  0  0  0  0  0  0  0  0
   16.6362   34.5317   37.1416 H   0  0  0  0  0  0  0  0  0  0  0  0
   15.3529   35.7356   37.5140 H   0  0  0  0  0  0  0  0  0  0  0  0
  1  2  2  0
  1  3  1  0
  3  4  1  0
  4  5  1  0
  6  1  1  0
  7  6  1  0
  6  8  1  0
  8  9  1  0
  9 10  1  0
  9 11  2  0
 10 12  1  0
 12 13  1  0
 13 14  2  0
 15 13  1  0
 14 16  1  0
 14 17  1  0
 18 15  2  0
 16 19  1  0
 16 20  2  0
 17 21  2  0
 21 18  1  0
  4 22  2  0
  4 23  1  0
 24 23  1  0
 24 25  1  0
 25 26  1  0
 25 27  1  0
 26 28  1  0
 27 29  1  0
 27 30  1  0
 30 28  1  0
 28 31  1  0
 30 32  1  0
 33 31  1  0
 34 31  1  0
 35 33  2  0
 33 36  1  0
 37 34  2  0
 38 35  1  0
 36 39  2  0
 36 37  1  0
 40 38  2  0
 40 39  1  0
 39 41  1  0
  6 42  1  6
  7 43  1  0
  7 44  1  0
  8 45  1  0
  8 46  1  0
 12 47  1  0
 12 48  1  0
 15 49  1  0
 17 50  1  0
 18 51  1  0
 21 52  1  0
 24 53  1  0
 24 54  1  0
 25 55  1  0
 27 56  1  0
 28 57  1  0
 29 58  1  0
 30 59  1  0
 32 60  1  0
 34 61  1  0
 38 62  1  0
 41 63  1  0
 41 64  1  0
M  CHG  3   5  -1  16   1  19  -1
M  END
>  <EmbedRMS>  (303) 
0.08690315884476055

$$$$

     RDKit          3D

 64 67  0  0  0  0  0  0  0  0999 V2000
   10.2865   43.7709   33.8098 C   0  0  0  0  0  0  0  0  0  0  0  0
   11.4102   43.5817   34.3616 O   0  0  0  0  0  0  0  0  0  0  0  0
    9.3672   42.7306   33.7016 O   0  0  0  0  0  0  0  0  0  0  0  0
    9.8850   41.2327   34.2837 P   0  0  0  0  0  5  0  0  0  0  0  0
   10.3651   41.4675   35.8745 O   0  0  0  0  0  1  0  0  0  0  0  0
    9.9607   45.1124   33.2476 C   0  0  2  0  0  0  0  0  0  0  0  0
   11.0654   46.0481   33.4746 N   0  0  0  0  0  0  0  0  0  0  0  0
    8.6658   45.6566   33.8729 C   0  0  0  0  0  0  0  0  0  0  0  0
    8.2712   46.9580   33.2474 C   0  0  0  0  0  0  0  0  0  0  0  0
    7.6422   46.9554   31.9977 O   0  0  0  0  0  0  0  0  0  0  0  0
    8.5362   48.0427   33.8343 O   0  0  0  0  0  0  0  0  0  0  0  0
    7.2018   48.1430   31.3418 C   0  0  0  0  0  0  0  0  0  0  0  0
    6.0324   48.7606   32.0741 C   0  0  0  0  0  0  0  0  0  0  0  0
    4.8697   48.0153   32.4094 C   0  0  0  0  0  0  0  0  0  0  0  0
    6.1210   50.1086   32.4676 C   0  0  0  0  0  0  0  0  0  0  0  0
    4.7100   46.6393   32.0182 N   0  0  0  0  0  4  0  0  0  0  0  0
    3.8517   48.6353   33.1574 C   0  0  0  0  0  0  0  0  0  0  0  0
    5.0924   50.7079   33.1954 C   0  0  0  0  0  0  0  0  0  0  0  0
    5.1056   46.2129   30.7719 O   0  0  0  0  0  1  0  0  0  0  0  0
    4.0658   45.8536   32.7437 O   0  0  0  0  0  0  0  0  0  0  0  0
    3.9624   49.9714   33.5439 C   0  0  0  0  0  0  0  0  0  0  0  0
    8.8074   40.1901   34.2071 O   0  0  0  0  0  0  0  0  0  0  0  0
   11.2381   40.7897   33.3686 O   0  0  0  0  0  0  0  0  0  0  0  0
   10.9194   40.6894   31.9947 C   0  0  0  0  0  0  0  0  0  0  0  0
   11.5171   39.3800   31.4396 C   0  0  0  0  0  0  0  0  0  0  0  0
   12.7478   39.0861   32.0733 O   0  0  0  0  0  0  0  0  0  0  0  0
   10.6031   38.1891   31.6666 C   0  0  0  0  0  0  0  0  0  0  0  0
   12.9335   37.6796   32.0279 C   0  0  0  0  0  0  0  0  0  0  0  0
    9.6397   38.0776   30.6456 O   0  0  0  0  0  0  0  0  0  0  0  0
   11.5739   37.0154   31.7057 C   0  0  0  0  0  0  0  0  0  0  0  0
   13.4903   37.2178   33.3231 N   0  0  0  0  0  0  0  0  0  0  0  0
   11.6211   36.3376   30.4695 O   0  0  0  0  0  0  0  0  0  0  0  0
   14.4761   36.3273   33.5725 C   0  0  0  0  0  0  0  0  0  0  0  0
   13.1178   37.6316   34.5684 C   0  0  0  0  0  0  0  0  0  0  0  0
   15.2063   35.6139   32.6737 N   0  0  0  0  0  0  0  0  0  0  0  0
   14.6733   36.2277   34.9180 C   0  0  0  0  0  0  0  0  0  0  0  0
   13.8225   37.0459   35.5779 N   0  0  0  0  0  0  0  0  0  0  0  0
   16.1636   34.7594   33.1546 C   0  0  0  0  0  0  0  0  0  0  0  0
   15.6515   35.3494   35.4129 C   0  0  0  0  0  0  0  0  0  0  0  0
   16.3791   34.6311   34.5041 N   0  0  0  0  0  0  0  0  0  0  0  0
   15.9001   35.1935   36.8088 N   0  0  0  0  0  0  0  0  0  0  0  0
    9.8092   44.9951   32.1514 H   0  0  0  0  0  0  0  0  0  0  0  0
   11.9215   45.7023   32.9820 H   0  0  0  0  0  0  0  0  0  0  0  0
   11.2757   46.1182   34.4979 H   0  0  0  0  0  0  0  0  0  0  0  0
    7.8367   44.9326   33.7161 H   0  0  0  0  0  0  0  0  0  0  0  0
    8.7966   45.7896   34.9699 H   0  0  0  0  0  0  0  0  0  0  0  0
    6.8969   47.8981   30.3040 H   0  0  0  0  0  0  0  0  0  0  0  0
    8.0558   48.8511   31.2603 H   0  0  0  0  0  0  0  0  0  0  0  0
    6.9956   50.6981   32.2214 H   0  0  0  0  0  0  0  0  0  0  0  0
    2.9595   48.0851   33.4286 H   0  0  0  0  0  0  0  0  0  0  0  0
    5.1752   51.7445   33.4955 H   0  0  0  0  0  0  0  0  0  0  0  0
    3.1678   50.4376   34.1122 H   0  0  0  0  0  0  0  0  0  0  0  0
    9.8316   40.7398   31.7544 H   0  0  0  0  0  0  0  0  0  0  0  0
   11.4013   41.5437   31.4731 H   0  0  0  0  0  0  0  0  0  0  0  0
   11.6982   39.5042   30.3469 H   0  0  0  0  0  0  0  0  0  0  0  0
   10.1090   38.2631   32.6649 H   0  0  0  0  0  0  0  0  0  0  0  0
   13.6656   37.4540   31.2207 H   0  0  0  0  0  0  0  0  0  0  0  0
    8.8965   38.6899   30.8851 H   0  0  0  0  0  0  0  0  0  0  0  0
   11.2846   36.3060   32.5175 H   0  0  0  0  0  0  0  0  0  0  0  0
   10.8524   35.7094   30.4590 H   0  0  0  0  0  0  0  0  0  0  0  0
   12.3353   38.3588   34.7439 H   0  0  0  0  0  0  0  0  0  0  0  0
   16.7570   34.1788   32.4619 H   0  0  0  0  0  0  0  0  0  0  0  0
   15.3529   35.7359   37.5136 H   0  0  0  0  0  0  0  0  0  0  0  0
   16.6360   34.5317   37.1413 H   0  0  0  0  0  0  0  0  0  0  0  0
  1  2  2  0
  1  3  1  0
  3  4  1  0
  4  5  1  0
  6  1  1  0
  7  6  1  0
  6  8  1  0
  8  9  1  0
  9 10  1  0
  9 11  2  0
 10 12  1  0
 12 13  1  0
 13 14  2  0
 15 13  1  0
 14 16  1  0
 14 17  1  0
 18 15  2  0
 16 19  1  0
 16 20  2  0
 17 21  2  0
 21 18  1  0
  4 22  2  0
  4 23  1  0
 24 23  1  0
 24 25  1  0
 25 26  1  0
 25 27  1  0
 26 28  1  0
 27 29  1  0
 27 30  1  0
 30 28  1  0
 28 31  1  0
 30 32  1  0
 33 31  1  0
 34 31  1  0
 35 33  2  0
 33 36  1  0
 37 34  2  0
 38 35  1  0
 36 39  2  0
 36 37  1  0
 40 38  2  0
 40 39  1  0
 39 41  1  0
  6 42  1  6
  7 43  1  0
  7 44  1  0
  8 45  1  0
  8 46  1  0
 12 47  1  0
 12 48  1  0
 15 49  1  0
 17 50  1  0
 18 51  1  0
 21 52  1  0
 24 53  1  0
 24 54  1  0
 25 55  1  0
 27 56  1  0
 28 57  1  0
 29 58  1  0
 30 59  1  0
 32 60  1  0
 34 61  1  0
 38 62  1  0
 41 63  1  0
 41 64  1  0
M  CHG  3   5  -1  16   1  19  -1
M  END
>  <EmbedRMS>  (304) 
0.0899658715690652

$$$$

     RDKit          3D

 64 67  0  0  0  0  0  0  0  0999 V2000
   10.2862   43.7710   33.8101 C   0  0  0  0  0  0  0  0  0  0  0  0
   11.4101   43.5817   34.3615 O   0  0  0  0  0  0  0  0  0  0  0  0
    9.3664   42.7311   33.7025 O   0  0  0  0  0  0  0  0  0  0  0  0
    9.8845   41.2331   34.2841 P   0  0  0  0  0  5  0  0  0  0  0  0
   10.3659   41.4675   35.8745 O   0  0  0  0  0  1  0  0  0  0  0  0
    9.9614   45.1118   33.2464 C   0  0  2  0  0  0  0  0  0  0  0  0
   11.0651   46.0484   33.4752 N   0  0  0  0  0  0  0  0  0  0  0  0
    8.6631   45.6561   33.8658 C   0  0  0  0  0  0  0  0  0  0  0  0
    8.2962   46.9766   33.2640 C   0  0  0  0  0  0  0  0  0  0  0  0
    7.7840   47.0199   31.9623 O   0  0  0  0  0  0  0  0  0  0  0  0
    8.4918   48.0391   33.9155 O   0  0  0  0  0  0  0  0  0  0  0  0
    7.5386   48.2394   31.2622 C   0  0  0  0  0  0  0  0  0  0  0  0
    8.8322   48.9362   30.8928 C   0  0  0  0  0  0  0  0  0  0  0  0
    8.9298   50.3521   30.8336 C   0  0  0  0  0  0  0  0  0  0  0  0
    9.9660   48.1603   30.5810 C   0  0  0  0  0  0  0  0  0  0  0  0
    7.7860   51.2009   31.0283 N   0  0  0  0  0  4  0  0  0  0  0  0
   10.1754   50.9442   30.5613 C   0  0  0  0  0  0  0  0  0  0  0  0
   11.1890   48.7675   30.2948 C   0  0  0  0  0  0  0  0  0  0  0  0
    7.9424   52.4418   31.6020 O   0  0  0  0  0  1  0  0  0  0  0  0
    6.6933   50.9188   30.4947 O   0  0  0  0  0  0  0  0  0  0  0  0
   11.2966   50.1566   30.2974 C   0  0  0  0  0  0  0  0  0  0  0  0
    8.8068   40.1905   34.2081 O   0  0  0  0  0  0  0  0  0  0  0  0
   11.2362   40.7908   33.3671 O   0  0  0  0  0  0  0  0  0  0  0  0
   10.9132   40.6860   31.9945 C   0  0  0  0  0  0  0  0  0  0  0  0
   11.5168   39.3798   31.4409 C   0  0  0  0  0  0  0  0  0  0  0  0
   12.7486   39.0887   32.0763 O   0  0  0  0  0  0  0  0  0  0  0  0
   10.6051   38.1876   31.6659 C   0  0  0  0  0  0  0  0  0  0  0  0
   12.9411   37.6829   32.0278 C   0  0  0  0  0  0  0  0  0  0  0  0
    9.6358   38.0930   30.6502 O   0  0  0  0  0  0  0  0  0  0  0  0
   11.5827   37.0179   31.6936 C   0  0  0  0  0  0  0  0  0  0  0  0
   13.4909   37.2177   33.3239 N   0  0  0  0  0  0  0  0  0  0  0  0
   11.6141   36.3180   30.4675 O   0  0  0  0  0  0  0  0  0  0  0  0
   14.4763   36.3270   33.5733 C   0  0  0  0  0  0  0  0  0  0  0  0
   13.1179   37.6316   34.5689 C   0  0  0  0  0  0  0  0  0  0  0  0
   15.2067   35.6140   32.6743 N   0  0  0  0  0  0  0  0  0  0  0  0
   14.6731   36.2273   34.9186 C   0  0  0  0  0  0  0  0  0  0  0  0
   13.8223   37.0456   35.5785 N   0  0  0  0  0  0  0  0  0  0  0  0
   16.1639   34.7595   33.1550 C   0  0  0  0  0  0  0  0  0  0  0  0
   15.6515   35.3491   35.4134 C   0  0  0  0  0  0  0  0  0  0  0  0
   16.3792   34.6310   34.5045 N   0  0  0  0  0  0  0  0  0  0  0  0
   15.9002   35.1933   36.8092 N   0  0  0  0  0  0  0  0  0  0  0  0
    9.8139   44.9929   32.1501 H   0  0  0  0  0  0  0  0  0  0  0  0
   11.2749   46.1177   34.4986 H   0  0  0  0  0  0  0  0  0  0  0  0
   11.9215   45.7053   32.9812 H   0  0  0  0  0  0  0  0  0  0  0  0
    8.7804   45.7621   34.9672 H   0  0  0  0  0  0  0  0  0  0  0  0
    7.8290   44.9455   33.6788 H   0  0  0  0  0  0  0  0  0  0  0  0
    6.8977   48.8836   31.9005 H   0  0  0  0  0  0  0  0  0  0  0  0
    6.9816   48.0092   30.3303 H   0  0  0  0  0  0  0  0  0  0  0  0
    9.9104   47.0791   30.5742 H   0  0  0  0  0  0  0  0  0  0  0  0
   10.2728   52.0219   30.5253 H   0  0  0  0  0  0  0  0  0  0  0  0
   12.0562   48.1587   30.0738 H   0  0  0  0  0  0  0  0  0  0  0  0
   12.2473   50.6252   30.0779 H   0  0  0  0  0  0  0  0  0  0  0  0
    9.8232   40.7211   31.7578 H   0  0  0  0  0  0  0  0  0  0  0  0
   11.3853   41.5434   31.4688 H   0  0  0  0  0  0  0  0  0  0  0  0
   11.6993   39.5065   30.3487 H   0  0  0  0  0  0  0  0  0  0  0  0
   10.1120   38.2722   32.6631 H   0  0  0  0  0  0  0  0  0  0  0  0
   13.6816   37.4634   31.2269 H   0  0  0  0  0  0  0  0  0  0  0  0
    9.0037   37.3827   30.9348 H   0  0  0  0  0  0  0  0  0  0  0  0
   11.2846   36.3041   32.4928 H   0  0  0  0  0  0  0  0  0  0  0  0
   11.8850   36.9590   29.7588 H   0  0  0  0  0  0  0  0  0  0  0  0
   12.3363   38.3599   34.7441 H   0  0  0  0  0  0  0  0  0  0  0  0
   16.7574   34.1790   32.4623 H   0  0  0  0  0  0  0  0  0  0  0  0
   15.3529   35.7355   37.5141 H   0  0  0  0  0  0  0  0  0  0  0  0
   16.6363   34.5317   37.1417 H   0  0  0  0  0  0  0  0  0  0  0  0
  1  2  2  0
  1  3  1  0
  3  4  1  0
  4  5  1  0
  6  1  1  0
  7  6  1  0
  6  8  1  0
  8  9  1  0
  9 10  1  0
  9 11  2  0
 10 12  1  0
 12 13  1  0
 13 14  2  0
 15 13  1  0
 14 16  1  0
 14 17  1  0
 18 15  2  0
 16 19  1  0
 16 20  2  0
 17 21  2  0
 21 18  1  0
  4 22  2  0
  4 23  1  0
 24 23  1  0
 24 25  1  0
 25 26  1  0
 25 27  1  0
 26 28  1  0
 27 29  1  0
 27 30  1  0
 30 28  1  0
 28 31  1  0
 30 32  1  0
 33 31  1  0
 34 31  1  0
 35 33  2  0
 33 36  1  0
 37 34  2  0
 38 35  1  0
 36 39  2  0
 36 37  1  0
 40 38  2  0
 40 39  1  0
 39 41  1  0
  6 42  1  6
  7 43  1  0
  7 44  1  0
  8 45  1  0
  8 46  1  0
 12 47  1  0
 12 48  1  0
 15 49  1  0
 17 50  1  0
 18 51  1  0
 21 52  1  0
 24 53  1  0
 24 54  1  0
 25 55  1  0
 27 56  1  0
 28 57  1  0
 29 58  1  0
 30 59  1  0
 32 60  1  0
 34 61  1  0
 38 62  1  0
 41 63  1  0
 41 64  1  0
M  CHG  3   5  -1  16   1  19  -1
M  END
>  <EmbedRMS>  (305) 
0.08835215111237152

$$$$

     RDKit          3D

 64 67  0  0  0  0  0  0  0  0999 V2000
   10.2860   43.7720   33.8047 C   0  0  0  0  0  0  0  0  0  0  0  0
   11.4085   43.5885   34.3612 O   0  0  0  0  0  0  0  0  0  0  0  0
    9.3677   42.7307   33.6990 O   0  0  0  0  0  0  0  0  0  0  0  0
    9.8858   41.2339   34.2835 P   0  0  0  0  0  5  0  0  0  0  0  0
   10.3656   41.4698   35.8742 O   0  0  0  0  0  1  0  0  0  0  0  0
    9.9530   45.1147   33.2533 C   0  0  2  0  0  0  0  0  0  0  0  0
   11.0713   46.0332   33.4765 N   0  0  0  0  0  0  0  0  0  0  0  0
    8.6601   45.6655   33.8886 C   0  0  0  0  0  0  0  0  0  0  0  0
    8.7904   45.8583   35.3704 C   0  0  0  0  0  0  0  0  0  0  0  0
    9.4281   47.0007   35.8604 O   0  0  0  0  0  0  0  0  0  0  0  0
    8.3556   44.9751   36.1592 O   0  0  0  0  0  0  0  0  0  0  0  0
    9.6125   47.2430   37.2513 C   0  0  0  0  0  0  0  0  0  0  0  0
   10.3152   48.5634   37.4483 C   0  0  0  0  0  0  0  0  0  0  0  0
    9.8082   49.7796   36.9115 C   0  0  0  0  0  0  0  0  0  0  0  0
   11.5324   48.5803   38.1549 C   0  0  0  0  0  0  0  0  0  0  0  0
    8.5644   49.8391   36.1882 N   0  0  0  0  0  4  0  0  0  0  0  0
   10.5531   50.9614   37.0744 C   0  0  0  0  0  0  0  0  0  0  0  0
   12.2461   49.7680   38.3176 C   0  0  0  0  0  0  0  0  0  0  0  0
    8.3841   50.7902   35.2103 O   0  0  0  0  0  1  0  0  0  0  0  0
    7.5856   49.1498   36.5401 O   0  0  0  0  0  0  0  0  0  0  0  0
   11.7598   50.9551   37.7747 C   0  0  0  0  0  0  0  0  0  0  0  0
    8.8082   40.1911   34.2077 O   0  0  0  0  0  0  0  0  0  0  0  0
   11.2383   40.7899   33.3684 O   0  0  0  0  0  0  0  0  0  0  0  0
   10.9189   40.6887   31.9947 C   0  0  0  0  0  0  0  0  0  0  0  0
   11.5181   39.3800   31.4397 C   0  0  0  0  0  0  0  0  0  0  0  0
   12.7485   39.0875   32.0749 O   0  0  0  0  0  0  0  0  0  0  0  0
   10.6054   38.1875   31.6656 C   0  0  0  0  0  0  0  0  0  0  0  0
   12.9361   37.6816   32.0288 C   0  0  0  0  0  0  0  0  0  0  0  0
    9.6423   38.0738   30.6445 O   0  0  0  0  0  0  0  0  0  0  0  0
   11.5765   37.0158   31.7046 C   0  0  0  0  0  0  0  0  0  0  0  0
   13.4908   37.2182   33.3237 N   0  0  0  0  0  0  0  0  0  0  0  0
   11.6102   36.3399   30.4680 O   0  0  0  0  0  0  0  0  0  0  0  0
   14.4762   36.3273   33.5728 C   0  0  0  0  0  0  0  0  0  0  0  0
   13.1181   37.6318   34.5689 C   0  0  0  0  0  0  0  0  0  0  0  0
   15.2063   35.6140   32.6739 N   0  0  0  0  0  0  0  0  0  0  0  0
   14.6733   36.2275   34.9182 C   0  0  0  0  0  0  0  0  0  0  0  0
   13.8226   37.0457   35.5783 N   0  0  0  0  0  0  0  0  0  0  0  0
   16.1636   34.7595   33.1546 C   0  0  0  0  0  0  0  0  0  0  0  0
   15.6515   35.3492   35.4130 C   0  0  0  0  0  0  0  0  0  0  0  0
   16.3791   34.6310   34.5041 N   0  0  0  0  0  0  0  0  0  0  0  0
   15.9002   35.1933   36.8089 N   0  0  0  0  0  0  0  0  0  0  0  0
    9.7835   45.0052   32.1585 H   0  0  0  0  0  0  0  0  0  0  0  0
   10.8098   46.9721   33.0963 H   0  0  0  0  0  0  0  0  0  0  0  0
   11.8824   45.7131   32.8975 H   0  0  0  0  0  0  0  0  0  0  0  0
    7.8130   44.9773   33.6739 H   0  0  0  0  0  0  0  0  0  0  0  0
    8.4072   46.6420   33.4223 H   0  0  0  0  0  0  0  0  0  0  0  0
   10.2052   46.4073   37.6845 H   0  0  0  0  0  0  0  0  0  0  0  0
    8.6332   47.2576   37.7746 H   0  0  0  0  0  0  0  0  0  0  0  0
   11.9391   47.6687   38.5753 H   0  0  0  0  0  0  0  0  0  0  0  0
   10.1896   51.8979   36.6707 H   0  0  0  0  0  0  0  0  0  0  0  0
   13.1823   49.7663   38.8610 H   0  0  0  0  0  0  0  0  0  0  0  0
   12.3178   51.8743   37.8990 H   0  0  0  0  0  0  0  0  0  0  0  0
   11.3994   41.5435   31.4725 H   0  0  0  0  0  0  0  0  0  0  0  0
    9.8309   40.7374   31.7550 H   0  0  0  0  0  0  0  0  0  0  0  0
   11.7002   39.5045   30.3473 H   0  0  0  0  0  0  0  0  0  0  0  0
   10.1104   38.2619   32.6636 H   0  0  0  0  0  0  0  0  0  0  0  0
   13.6696   37.4585   31.2222 H   0  0  0  0  0  0  0  0  0  0  0  0
    8.9000   38.6882   30.8814 H   0  0  0  0  0  0  0  0  0  0  0  0
   11.2690   36.3069   32.5091 H   0  0  0  0  0  0  0  0  0  0  0  0
   12.1426   35.5151   30.6153 H   0  0  0  0  0  0  0  0  0  0  0  0
   12.3359   38.3593   34.7445 H   0  0  0  0  0  0  0  0  0  0  0  0
   16.7569   34.1789   32.4618 H   0  0  0  0  0  0  0  0  0  0  0  0
   15.3530   35.7356   37.5138 H   0  0  0  0  0  0  0  0  0  0  0  0
   16.6362   34.5315   37.1414 H   0  0  0  0  0  0  0  0  0  0  0  0
  1  2  2  0
  1  3  1  0
  3  4  1  0
  4  5  1  0
  6  1  1  0
  7  6  1  0
  6  8  1  0
  8  9  1  0
  9 10  1  0
  9 11  2  0
 10 12  1  0
 12 13  1  0
 13 14  2  0
 15 13  1  0
 14 16  1  0
 14 17  1  0
 18 15  2  0
 16 19  1  0
 16 20  2  0
 17 21  2  0
 21 18  1  0
  4 22  2  0
  4 23  1  0
 24 23  1  0
 24 25  1  0
 25 26  1  0
 25 27  1  0
 26 28  1  0
 27 29  1  0
 27 30  1  0
 30 28  1  0
 28 31  1  0
 30 32  1  0
 33 31  1  0
 34 31  1  0
 35 33  2  0
 33 36  1  0
 37 34  2  0
 38 35  1  0
 36 39  2  0
 36 37  1  0
 40 38  2  0
 40 39  1  0
 39 41  1  0
  6 42  1  6
  7 43  1  0
  7 44  1  0
  8 45  1  0
  8 46  1  0
 12 47  1  0
 12 48  1  0
 15 49  1  0
 17 50  1  0
 18 51  1  0
 21 52  1  0
 24 53  1  0
 24 54  1  0
 25 55  1  0
 27 56  1  0
 28 57  1  0
 29 58  1  0
 30 59  1  0
 32 60  1  0
 34 61  1  0
 38 62  1  0
 41 63  1  0
 41 64  1  0
M  CHG  3   5  -1  16   1  19  -1
M  END
>  <EmbedRMS>  (306) 
0.0893366332471863

$$$$

     RDKit          3D

 64 67  0  0  0  0  0  0  0  0999 V2000
   10.2860   43.7681   33.8089 C   0  0  0  0  0  0  0  0  0  0  0  0
   11.4095   43.5785   34.3609 O   0  0  0  0  0  0  0  0  0  0  0  0
    9.3640   42.7306   33.7037 O   0  0  0  0  0  0  0  0  0  0  0  0
    9.8842   41.2327   34.2842 P   0  0  0  0  0  5  0  0  0  0  0  0
   10.3691   41.4682   35.8731 O   0  0  0  0  0  1  0  0  0  0  0  0
    9.9717   45.1077   33.2338 C   0  0  2  0  0  0  0  0  0  0  0  0
   11.0590   46.0568   33.4863 N   0  0  0  0  0  0  0  0  0  0  0  0
    8.6221   45.6718   33.7304 C   0  0  0  0  0  0  0  0  0  0  0  0
    8.3905   45.5561   35.2122 C   0  0  0  0  0  0  0  0  0  0  0  0
    7.0997   45.2748   35.6716 O   0  0  0  0  0  0  0  0  0  0  0  0
    9.3274   45.7672   36.0298 O   0  0  0  0  0  0  0  0  0  0  0  0
    6.7927   45.0379   37.0435 C   0  0  0  0  0  0  0  0  0  0  0  0
    7.2610   43.6641   37.4624 C   0  0  0  0  0  0  0  0  0  0  0  0
    6.8687   42.4870   36.7690 C   0  0  0  0  0  0  0  0  0  0  0  0
    8.1350   43.5556   38.5595 C   0  0  0  0  0  0  0  0  0  0  0  0
    5.9779   42.5305   35.6390 N   0  0  0  0  0  4  0  0  0  0  0  0
    7.3762   41.2440   37.1896 C   0  0  0  0  0  0  0  0  0  0  0  0
    8.6193   42.3114   38.9647 C   0  0  0  0  0  0  0  0  0  0  0  0
    4.8811   43.3601   35.6396 O   0  0  0  0  0  1  0  0  0  0  0  0
    6.0983   41.6987   34.7158 O   0  0  0  0  0  0  0  0  0  0  0  0
    8.2407   41.1580   38.2813 C   0  0  0  0  0  0  0  0  0  0  0  0
    8.8085   40.1884   34.2088 O   0  0  0  0  0  0  0  0  0  0  0  0
   11.2372   40.7908   33.3682 O   0  0  0  0  0  0  0  0  0  0  0  0
   10.9182   40.6895   31.9946 C   0  0  0  0  0  0  0  0  0  0  0  0
   11.5166   39.3802   31.4398 C   0  0  0  0  0  0  0  0  0  0  0  0
   12.7474   39.0864   32.0736 O   0  0  0  0  0  0  0  0  0  0  0  0
   10.6029   38.1890   31.6667 C   0  0  0  0  0  0  0  0  0  0  0  0
   12.9334   37.6799   32.0280 C   0  0  0  0  0  0  0  0  0  0  0  0
    9.6395   38.0776   30.6457 O   0  0  0  0  0  0  0  0  0  0  0  0
   11.5739   37.0155   31.7058 C   0  0  0  0  0  0  0  0  0  0  0  0
   13.4902   37.2179   33.3231 N   0  0  0  0  0  0  0  0  0  0  0  0
   11.6211   36.3377   30.4695 O   0  0  0  0  0  0  0  0  0  0  0  0
   14.4760   36.3274   33.5725 C   0  0  0  0  0  0  0  0  0  0  0  0
   13.1178   37.6317   34.5685 C   0  0  0  0  0  0  0  0  0  0  0  0
   15.2063   35.6140   32.6737 N   0  0  0  0  0  0  0  0  0  0  0  0
   14.6733   36.2278   34.9180 C   0  0  0  0  0  0  0  0  0  0  0  0
   13.8225   37.0459   35.5780 N   0  0  0  0  0  0  0  0  0  0  0  0
   16.1635   34.7595   33.1546 C   0  0  0  0  0  0  0  0  0  0  0  0
   15.6515   35.3494   35.4129 C   0  0  0  0  0  0  0  0  0  0  0  0
   16.3790   34.6311   34.5041 N   0  0  0  0  0  0  0  0  0  0  0  0
   15.9001   35.1936   36.8088 N   0  0  0  0  0  0  0  0  0  0  0  0
    9.8858   44.9794   32.1320 H   0  0  0  0  0  0  0  0  0  0  0  0
   11.9182   45.7375   32.9812 H   0  0  0  0  0  0  0  0  0  0  0  0
   11.2843   46.1023   34.5061 H   0  0  0  0  0  0  0  0  0  0  0  0
    7.8038   45.1271   33.2103 H   0  0  0  0  0  0  0  0  0  0  0  0
    8.5359   46.7403   33.4379 H   0  0  0  0  0  0  0  0  0  0  0  0
    7.2460   45.8386   37.6687 H   0  0  0  0  0  0  0  0  0  0  0  0
    5.6967   45.1129   37.1934 H   0  0  0  0  0  0  0  0  0  0  0  0
    8.4502   44.4383   39.1021 H   0  0  0  0  0  0  0  0  0  0  0  0
    7.0917   40.3346   36.6756 H   0  0  0  0  0  0  0  0  0  0  0  0
    9.2928   42.2421   39.8091 H   0  0  0  0  0  0  0  0  0  0  0  0
    8.6202   40.1943   38.5957 H   0  0  0  0  0  0  0  0  0  0  0  0
    9.8303   40.7392   31.7549 H   0  0  0  0  0  0  0  0  0  0  0  0
   11.3994   41.5439   31.4724 H   0  0  0  0  0  0  0  0  0  0  0  0
   11.6978   39.5043   30.3472 H   0  0  0  0  0  0  0  0  0  0  0  0
   10.1087   38.2630   32.6651 H   0  0  0  0  0  0  0  0  0  0  0  0
   13.6654   37.4546   31.2208 H   0  0  0  0  0  0  0  0  0  0  0  0
    8.8958   38.6891   30.8858 H   0  0  0  0  0  0  0  0  0  0  0  0
   11.2846   36.3060   32.5176 H   0  0  0  0  0  0  0  0  0  0  0  0
   10.8524   35.7095   30.4590 H   0  0  0  0  0  0  0  0  0  0  0  0
   12.3352   38.3588   34.7441 H   0  0  0  0  0  0  0  0  0  0  0  0
   16.7569   34.1789   32.4619 H   0  0  0  0  0  0  0  0  0  0  0  0
   15.3529   35.7359   37.5136 H   0  0  0  0  0  0  0  0  0  0  0  0
   16.6359   34.5317   37.1413 H   0  0  0  0  0  0  0  0  0  0  0  0
  1  2  2  0
  1  3  1  0
  3  4  1  0
  4  5  1  0
  6  1  1  0
  7  6  1  0
  6  8  1  0
  8  9  1  0
  9 10  1  0
  9 11  2  0
 10 12  1  0
 12 13  1  0
 13 14  2  0
 15 13  1  0
 14 16  1  0
 14 17  1  0
 18 15  2  0
 16 19  1  0
 16 20  2  0
 17 21  2  0
 21 18  1  0
  4 22  2  0
  4 23  1  0
 24 23  1  0
 24 25  1  0
 25 26  1  0
 25 27  1  0
 26 28  1  0
 27 29  1  0
 27 30  1  0
 30 28  1  0
 28 31  1  0
 30 32  1  0
 33 31  1  0
 34 31  1  0
 35 33  2  0
 33 36  1  0
 37 34  2  0
 38 35  1  0
 36 39  2  0
 36 37  1  0
 40 38  2  0
 40 39  1  0
 39 41  1  0
  6 42  1  6
  7 43  1  0
  7 44  1  0
  8 45  1  0
  8 46  1  0
 12 47  1  0
 12 48  1  0
 15 49  1  0
 17 50  1  0
 18 51  1  0
 21 52  1  0
 24 53  1  0
 24 54  1  0
 25 55  1  0
 27 56  1  0
 28 57  1  0
 29 58  1  0
 30 59  1  0
 32 60  1  0
 34 61  1  0
 38 62  1  0
 41 63  1  0
 41 64  1  0
M  CHG  3   5  -1  16   1  19  -1
M  END
>  <EmbedRMS>  (307) 
0.08962283825621568

$$$$

     RDKit          3D

 64 67  0  0  0  0  0  0  0  0999 V2000
   10.2876   43.7688   33.8087 C   0  0  0  0  0  0  0  0  0  0  0  0
   11.4117   43.5792   34.3595 O   0  0  0  0  0  0  0  0  0  0  0  0
    9.3667   42.7303   33.7017 O   0  0  0  0  0  0  0  0  0  0  0  0
    9.8844   41.2325   34.2840 P   0  0  0  0  0  5  0  0  0  0  0  0
   10.3647   41.4678   35.8747 O   0  0  0  0  0  1  0  0  0  0  0  0
    9.9637   45.1117   33.2474 C   0  0  2  0  0  0  0  0  0  0  0  0
   11.0623   46.0540   33.4760 N   0  0  0  0  0  0  0  0  0  0  0  0
    8.6429   45.6685   33.8128 C   0  0  0  0  0  0  0  0  0  0  0  0
    8.6675   45.8209   35.3049 C   0  0  0  0  0  0  0  0  0  0  0  0
    9.1525   47.0046   35.8667 O   0  0  0  0  0  0  0  0  0  0  0  0
    8.2811   44.8709   36.0395 O   0  0  0  0  0  0  0  0  0  0  0  0
    9.2380   47.2106   37.2731 C   0  0  0  0  0  0  0  0  0  0  0  0
    9.7847   48.5886   37.5526 C   0  0  0  0  0  0  0  0  0  0  0  0
    9.1771   49.7655   37.0328 C   0  0  0  0  0  0  0  0  0  0  0  0
   10.9575   48.7049   38.3223 C   0  0  0  0  0  0  0  0  0  0  0  0
    7.9710   49.7231   36.2471 N   0  0  0  0  0  4  0  0  0  0  0  0
    9.7823   51.0116   37.2761 C   0  0  0  0  0  0  0  0  0  0  0  0
   11.5310   49.9536   38.5639 C   0  0  0  0  0  0  0  0  0  0  0  0
    7.7373   50.6895   35.2958 O   0  0  0  0  0  1  0  0  0  0  0  0
    7.0561   48.9201   36.5213 O   0  0  0  0  0  0  0  0  0  0  0  0
   10.9473   51.1039   38.0383 C   0  0  0  0  0  0  0  0  0  0  0  0
    8.8068   40.1899   34.2075 O   0  0  0  0  0  0  0  0  0  0  0  0
   11.2374   40.7895   33.3687 O   0  0  0  0  0  0  0  0  0  0  0  0
   10.9185   40.6886   31.9949 C   0  0  0  0  0  0  0  0  0  0  0  0
   11.5179   39.3800   31.4398 C   0  0  0  0  0  0  0  0  0  0  0  0
   12.7483   39.0876   32.0750 O   0  0  0  0  0  0  0  0  0  0  0  0
   10.6053   38.1874   31.6656 C   0  0  0  0  0  0  0  0  0  0  0  0
   12.9361   37.6816   32.0288 C   0  0  0  0  0  0  0  0  0  0  0  0
    9.6423   38.0737   30.6445 O   0  0  0  0  0  0  0  0  0  0  0  0
   11.5765   37.0158   31.7046 C   0  0  0  0  0  0  0  0  0  0  0  0
   13.4908   37.2183   33.3237 N   0  0  0  0  0  0  0  0  0  0  0  0
   11.6103   36.3399   30.4680 O   0  0  0  0  0  0  0  0  0  0  0  0
   14.4762   36.3274   33.5728 C   0  0  0  0  0  0  0  0  0  0  0  0
   13.1181   37.6318   34.5689 C   0  0  0  0  0  0  0  0  0  0  0  0
   15.2063   35.6141   32.6739 N   0  0  0  0  0  0  0  0  0  0  0  0
   14.6733   36.2275   34.9182 C   0  0  0  0  0  0  0  0  0  0  0  0
   13.8226   37.0457   35.5783 N   0  0  0  0  0  0  0  0  0  0  0  0
   16.1636   34.7595   33.1546 C   0  0  0  0  0  0  0  0  0  0  0  0
   15.6515   35.3492   35.4130 C   0  0  0  0  0  0  0  0  0  0  0  0
   16.3791   34.6310   34.5041 N   0  0  0  0  0  0  0  0  0  0  0  0
   15.9002   35.1934   36.8089 N   0  0  0  0  0  0  0  0  0  0  0  0
    9.8319   44.9920   32.1495 H   0  0  0  0  0  0  0  0  0  0  0  0
   11.3062   46.0955   34.4929 H   0  0  0  0  0  0  0  0  0  0  0  0
   11.9087   45.7278   32.9539 H   0  0  0  0  0  0  0  0  0  0  0  0
    7.8024   44.9995   33.5248 H   0  0  0  0  0  0  0  0  0  0  0  0
    8.4402   46.6603   33.3540 H   0  0  0  0  0  0  0  0  0  0  0  0
    9.8934   46.4254   37.7102 H   0  0  0  0  0  0  0  0  0  0  0  0
    8.2372   47.1018   37.7417 H   0  0  0  0  0  0  0  0  0  0  0  0
   11.4387   47.8250   38.7312 H   0  0  0  0  0  0  0  0  0  0  0  0
    9.3407   51.9202   36.8869 H   0  0  0  0  0  0  0  0  0  0  0  0
   12.4345   50.0284   39.1553 H   0  0  0  0  0  0  0  0  0  0  0  0
   11.3968   52.0709   38.2240 H   0  0  0  0  0  0  0  0  0  0  0  0
    9.8306   40.7374   31.7550 H   0  0  0  0  0  0  0  0  0  0  0  0
   11.3991   41.5436   31.4731 H   0  0  0  0  0  0  0  0  0  0  0  0
   11.7001   39.5047   30.3474 H   0  0  0  0  0  0  0  0  0  0  0  0
   10.1103   38.2617   32.6636 H   0  0  0  0  0  0  0  0  0  0  0  0
   13.6696   37.4587   31.2222 H   0  0  0  0  0  0  0  0  0  0  0  0
    8.8999   38.6880   30.8814 H   0  0  0  0  0  0  0  0  0  0  0  0
   11.2690   36.3069   32.5091 H   0  0  0  0  0  0  0  0  0  0  0  0
   12.1427   35.5151   30.6153 H   0  0  0  0  0  0  0  0  0  0  0  0
   12.3359   38.3593   34.7445 H   0  0  0  0  0  0  0  0  0  0  0  0
   16.7569   34.1789   32.4618 H   0  0  0  0  0  0  0  0  0  0  0  0
   16.6361   34.5315   37.1414 H   0  0  0  0  0  0  0  0  0  0  0  0
   15.3530   35.7357   37.5138 H   0  0  0  0  0  0  0  0  0  0  0  0
  1  2  2  0
  1  3  1  0
  3  4  1  0
  4  5  1  0
  6  1  1  0
  7  6  1  0
  6  8  1  0
  8  9  1  0
  9 10  1  0
  9 11  2  0
 10 12  1  0
 12 13  1  0
 13 14  2  0
 15 13  1  0
 14 16  1  0
 14 17  1  0
 18 15  2  0
 16 19  1  0
 16 20  2  0
 17 21  2  0
 21 18  1  0
  4 22  2  0
  4 23  1  0
 24 23  1  0
 24 25  1  0
 25 26  1  0
 25 27  1  0
 26 28  1  0
 27 29  1  0
 27 30  1  0
 30 28  1  0
 28 31  1  0
 30 32  1  0
 33 31  1  0
 34 31  1  0
 35 33  2  0
 33 36  1  0
 37 34  2  0
 38 35  1  0
 36 39  2  0
 36 37  1  0
 40 38  2  0
 40 39  1  0
 39 41  1  0
  6 42  1  6
  7 43  1  0
  7 44  1  0
  8 45  1  0
  8 46  1  0
 12 47  1  0
 12 48  1  0
 15 49  1  0
 17 50  1  0
 18 51  1  0
 21 52  1  0
 24 53  1  0
 24 54  1  0
 25 55  1  0
 27 56  1  0
 28 57  1  0
 29 58  1  0
 30 59  1  0
 32 60  1  0
 34 61  1  0
 38 62  1  0
 41 63  1  0
 41 64  1  0
M  CHG  3   5  -1  16   1  19  -1
M  END
>  <EmbedRMS>  (308) 
0.08996296833525994

$$$$

     RDKit          3D

 64 67  0  0  0  0  0  0  0  0999 V2000
   10.2845   43.7734   33.8092 C   0  0  0  0  0  0  0  0  0  0  0  0
   11.4074   43.5894   34.3647 O   0  0  0  0  0  0  0  0  0  0  0  0
    9.3667   42.7319   33.7022 O   0  0  0  0  0  0  0  0  0  0  0  0
    9.8851   41.2342   34.2837 P   0  0  0  0  0  5  0  0  0  0  0  0
   10.3671   41.4667   35.8727 O   0  0  0  0  0  1  0  0  0  0  0  0
    9.9544   45.1135   33.2500 C   0  0  2  0  0  0  0  0  0  0  0  0
   11.0721   46.0328   33.4736 N   0  0  0  0  0  0  0  0  0  0  0  0
    8.6573   45.6695   33.8727 C   0  0  0  0  0  0  0  0  0  0  0  0
    8.8090   45.9560   35.3366 C   0  0  0  0  0  0  0  0  0  0  0  0
    8.5842   44.9335   36.2660 O   0  0  0  0  0  0  0  0  0  0  0  0
    9.1640   47.1064   35.7128 O   0  0  0  0  0  0  0  0  0  0  0  0
    8.9135   45.0353   37.6509 C   0  0  0  0  0  0  0  0  0  0  0  0
   10.2925   44.4660   37.8941 C   0  0  0  0  0  0  0  0  0  0  0  0
   10.4992   43.2044   38.5107 C   0  0  0  0  0  0  0  0  0  0  0  0
   11.4037   45.1740   37.4009 C   0  0  0  0  0  0  0  0  0  0  0  0
    9.4158   42.4581   39.0825 N   0  0  0  0  0  4  0  0  0  0  0  0
   11.7991   42.6741   38.5787 C   0  0  0  0  0  0  0  0  0  0  0  0
   12.6891   44.6378   37.4898 C   0  0  0  0  0  0  0  0  0  0  0  0
    8.6446   43.0252   40.0705 O   0  0  0  0  0  1  0  0  0  0  0  0
    9.3419   41.2265   38.8927 O   0  0  0  0  0  0  0  0  0  0  0  0
   12.8856   43.3864   38.0702 C   0  0  0  0  0  0  0  0  0  0  0  0
    8.8077   40.1913   34.2080 O   0  0  0  0  0  0  0  0  0  0  0  0
   11.2369   40.7913   33.3680 O   0  0  0  0  0  0  0  0  0  0  0  0
   10.9153   40.6899   31.9953 C   0  0  0  0  0  0  0  0  0  0  0  0
   11.5269   39.3898   31.4372 C   0  0  0  0  0  0  0  0  0  0  0  0
   12.7506   39.0917   32.0839 O   0  0  0  0  0  0  0  0  0  0  0  0
   10.6121   38.1916   31.6452 C   0  0  0  0  0  0  0  0  0  0  0  0
   12.9429   37.6854   32.0296 C   0  0  0  0  0  0  0  0  0  0  0  0
    9.6069   38.0858   30.6603 O   0  0  0  0  0  0  0  0  0  0  0  0
   11.5845   37.0186   31.6880 C   0  0  0  0  0  0  0  0  0  0  0  0
   13.4898   37.2165   33.3251 N   0  0  0  0  0  0  0  0  0  0  0  0
   11.6202   36.3063   30.4694 O   0  0  0  0  0  0  0  0  0  0  0  0
   14.4758   36.3264   33.5739 C   0  0  0  0  0  0  0  0  0  0  0  0
   13.1176   37.6309   34.5700 C   0  0  0  0  0  0  0  0  0  0  0  0
   15.2064   35.6140   32.6747 N   0  0  0  0  0  0  0  0  0  0  0  0
   14.6731   36.2268   34.9191 C   0  0  0  0  0  0  0  0  0  0  0  0
   13.8224   37.0451   35.5793 N   0  0  0  0  0  0  0  0  0  0  0  0
   16.1639   34.7596   33.1551 C   0  0  0  0  0  0  0  0  0  0  0  0
   15.6517   35.3489   35.4136 C   0  0  0  0  0  0  0  0  0  0  0  0
   16.3795   34.6310   34.5046 N   0  0  0  0  0  0  0  0  0  0  0  0
   15.9006   35.1931   36.8094 N   0  0  0  0  0  0  0  0  0  0  0  0
    9.7914   44.9962   32.1549 H   0  0  0  0  0  0  0  0  0  0  0  0
   10.8127   46.9687   33.0849 H   0  0  0  0  0  0  0  0  0  0  0  0
   11.8866   45.7083   32.9018 H   0  0  0  0  0  0  0  0  0  0  0  0
    7.8250   44.9476   33.7253 H   0  0  0  0  0  0  0  0  0  0  0  0
    8.3693   46.6047   33.3446 H   0  0  0  0  0  0  0  0  0  0  0  0
    8.8694   46.0906   37.9980 H   0  0  0  0  0  0  0  0  0  0  0  0
    8.1360   44.4928   38.2181 H   0  0  0  0  0  0  0  0  0  0  0  0
   11.2759   46.1394   36.9301 H   0  0  0  0  0  0  0  0  0  0  0  0
   11.9711   41.7107   39.0421 H   0  0  0  0  0  0  0  0  0  0  0  0
   13.5335   45.1904   37.0984 H   0  0  0  0  0  0  0  0  0  0  0  0
   13.8827   42.9700   38.1329 H   0  0  0  0  0  0  0  0  0  0  0  0
    9.8252   40.7191   31.7581 H   0  0  0  0  0  0  0  0  0  0  0  0
   11.3821   41.5526   31.4735 H   0  0  0  0  0  0  0  0  0  0  0  0
   11.7320   39.5335   30.3518 H   0  0  0  0  0  0  0  0  0  0  0  0
   10.1215   38.2684   32.6413 H   0  0  0  0  0  0  0  0  0  0  0  0
   13.6882   37.4709   31.2320 H   0  0  0  0  0  0  0  0  0  0  0  0
   10.0256   38.1750   29.7656 H   0  0  0  0  0  0  0  0  0  0  0  0
   11.2795   36.3124   32.4916 H   0  0  0  0  0  0  0  0  0  0  0  0
   11.9872   36.9099   29.7715 H   0  0  0  0  0  0  0  0  0  0  0  0
   12.3366   38.3599   34.7455 H   0  0  0  0  0  0  0  0  0  0  0  0
   16.7576   34.1795   32.4622 H   0  0  0  0  0  0  0  0  0  0  0  0
   16.6368   34.5316   37.1418 H   0  0  0  0  0  0  0  0  0  0  0  0
   15.3532   35.7352   37.5144 H   0  0  0  0  0  0  0  0  0  0  0  0
  1  2  2  0
  1  3  1  0
  3  4  1  0
  4  5  1  0
  6  1  1  0
  7  6  1  0
  6  8  1  0
  8  9  1  0
  9 10  1  0
  9 11  2  0
 10 12  1  0
 12 13  1  0
 13 14  2  0
 15 13  1  0
 14 16  1  0
 14 17  1  0
 18 15  2  0
 16 19  1  0
 16 20  2  0
 17 21  2  0
 21 18  1  0
  4 22  2  0
  4 23  1  0
 24 23  1  0
 24 25  1  0
 25 26  1  0
 25 27  1  0
 26 28  1  0
 27 29  1  0
 27 30  1  0
 30 28  1  0
 28 31  1  0
 30 32  1  0
 33 31  1  0
 34 31  1  0
 35 33  2  0
 33 36  1  0
 37 34  2  0
 38 35  1  0
 36 39  2  0
 36 37  1  0
 40 38  2  0
 40 39  1  0
 39 41  1  0
  6 42  1  6
  7 43  1  0
  7 44  1  0
  8 45  1  0
  8 46  1  0
 12 47  1  0
 12 48  1  0
 15 49  1  0
 17 50  1  0
 18 51  1  0
 21 52  1  0
 24 53  1  0
 24 54  1  0
 25 55  1  0
 27 56  1  0
 28 57  1  0
 29 58  1  0
 30 59  1  0
 32 60  1  0
 34 61  1  0
 38 62  1  0
 41 63  1  0
 41 64  1  0
M  CHG  3   5  -1  16   1  19  -1
M  END
>  <EmbedRMS>  (309) 
0.08698996188518944

$$$$

     RDKit          3D

 64 67  0  0  0  0  0  0  0  0999 V2000
   10.2798   43.7741   33.8056 C   0  0  0  0  0  0  0  0  0  0  0  0
   11.4015   43.5895   34.3645 O   0  0  0  0  0  0  0  0  0  0  0  0
    9.3635   42.7304   33.6992 O   0  0  0  0  0  0  0  0  0  0  0  0
    9.8869   41.2346   34.2842 P   0  0  0  0  0  5  0  0  0  0  0  0
   10.3669   41.4714   35.8745 O   0  0  0  0  0  1  0  0  0  0  0  0
    9.9587   45.1156   33.2372 C   0  0  2  0  0  0  0  0  0  0  0  0
   11.0763   46.0279   33.4877 N   0  0  0  0  0  0  0  0  0  0  0  0
    8.6682   45.6839   33.8669 C   0  0  0  0  0  0  0  0  0  0  0  0
    7.4373   45.0821   33.2599 C   0  0  0  0  0  0  0  0  0  0  0  0
    6.5989   44.2785   34.0408 O   0  0  0  0  0  0  0  0  0  0  0  0
    7.1544   45.3298   32.0561 O   0  0  0  0  0  0  0  0  0  0  0  0
    5.4036   43.6772   33.5447 C   0  0  0  0  0  0  0  0  0  0  0  0
    5.7230   42.4393   32.7418 C   0  0  0  0  0  0  0  0  0  0  0  0
    5.9192   41.1727   33.3530 C   0  0  0  0  0  0  0  0  0  0  0  0
    5.8015   42.5454   31.3411 C   0  0  0  0  0  0  0  0  0  0  0  0
    5.8784   41.0053   34.7822 N   0  0  0  0  0  4  0  0  0  0  0  0
    6.1511   40.0484   32.5383 C   0  0  0  0  0  0  0  0  0  0  0  0
    6.0547   41.4218   30.5539 C   0  0  0  0  0  0  0  0  0  0  0  0
    6.4537   41.9380   35.6136 O   0  0  0  0  0  1  0  0  0  0  0  0
    5.4814   39.9288   35.2744 O   0  0  0  0  0  0  0  0  0  0  0  0
    6.2229   40.1747   31.1509 C   0  0  0  0  0  0  0  0  0  0  0  0
    8.8177   40.1845   34.2107 O   0  0  0  0  0  0  0  0  0  0  0  0
   11.2394   40.7944   33.3681 O   0  0  0  0  0  0  0  0  0  0  0  0
   10.9169   40.6908   31.9955 C   0  0  0  0  0  0  0  0  0  0  0  0
   11.5165   39.3826   31.4414 C   0  0  0  0  0  0  0  0  0  0  0  0
   12.7485   39.0897   32.0760 O   0  0  0  0  0  0  0  0  0  0  0  0
   10.6029   38.1900   31.6661 C   0  0  0  0  0  0  0  0  0  0  0  0
   12.9396   37.6838   32.0277 C   0  0  0  0  0  0  0  0  0  0  0  0
    9.6373   38.0783   30.6475 O   0  0  0  0  0  0  0  0  0  0  0  0
   11.5799   37.0206   31.6939 C   0  0  0  0  0  0  0  0  0  0  0  0
   13.4900   37.2179   33.3237 N   0  0  0  0  0  0  0  0  0  0  0  0
   11.6115   36.3194   30.4683 O   0  0  0  0  0  0  0  0  0  0  0  0
   14.4757   36.3273   33.5730 C   0  0  0  0  0  0  0  0  0  0  0  0
   13.1174   37.6318   34.5688 C   0  0  0  0  0  0  0  0  0  0  0  0
   15.2063   35.6143   32.6741 N   0  0  0  0  0  0  0  0  0  0  0  0
   14.6728   36.2275   34.9184 C   0  0  0  0  0  0  0  0  0  0  0  0
   13.8220   37.0458   35.5783 N   0  0  0  0  0  0  0  0  0  0  0  0
   16.1636   34.7598   33.1548 C   0  0  0  0  0  0  0  0  0  0  0  0
   15.6513   35.3493   35.4132 C   0  0  0  0  0  0  0  0  0  0  0  0
   16.3790   34.6312   34.5043 N   0  0  0  0  0  0  0  0  0  0  0  0
   15.9001   35.1935   36.8090 N   0  0  0  0  0  0  0  0  0  0  0  0
    9.8266   45.0093   32.1361 H   0  0  0  0  0  0  0  0  0  0  0  0
   11.9098   45.6857   32.9546 H   0  0  0  0  0  0  0  0  0  0  0  0
   10.8480   46.9579   33.0664 H   0  0  0  0  0  0  0  0  0  0  0  0
    8.6692   45.5199   34.9671 H   0  0  0  0  0  0  0  0  0  0  0  0
    8.6158   46.7817   33.7012 H   0  0  0  0  0  0  0  0  0  0  0  0
    4.8295   44.4126   32.9386 H   0  0  0  0  0  0  0  0  0  0  0  0
    4.7478   43.4133   34.4001 H   0  0  0  0  0  0  0  0  0  0  0  0
    5.6498   43.4993   30.8521 H   0  0  0  0  0  0  0  0  0  0  0  0
    6.2990   39.0718   32.9818 H   0  0  0  0  0  0  0  0  0  0  0  0
    6.1099   41.5170   29.4772 H   0  0  0  0  0  0  0  0  0  0  0  0
    6.4102   39.3031   30.5372 H   0  0  0  0  0  0  0  0  0  0  0  0
   11.3949   41.5456   31.4712 H   0  0  0  0  0  0  0  0  0  0  0  0
    9.8280   40.7384   31.7576 H   0  0  0  0  0  0  0  0  0  0  0  0
   11.6980   39.5091   30.3491 H   0  0  0  0  0  0  0  0  0  0  0  0
   10.1116   38.2590   32.6661 H   0  0  0  0  0  0  0  0  0  0  0  0
   13.6795   37.4635   31.2265 H   0  0  0  0  0  0  0  0  0  0  0  0
    8.9000   38.6978   30.8848 H   0  0  0  0  0  0  0  0  0  0  0  0
   11.2827   36.3063   32.4932 H   0  0  0  0  0  0  0  0  0  0  0  0
   11.8852   36.9591   29.7595 H   0  0  0  0  0  0  0  0  0  0  0  0
   12.3358   38.3600   34.7443 H   0  0  0  0  0  0  0  0  0  0  0  0
   16.7571   34.1794   32.4620 H   0  0  0  0  0  0  0  0  0  0  0  0
   15.3528   35.7357   37.5139 H   0  0  0  0  0  0  0  0  0  0  0  0
   16.6361   34.5318   37.1415 H   0  0  0  0  0  0  0  0  0  0  0  0
  1  2  2  0
  1  3  1  0
  3  4  1  0
  4  5  1  0
  6  1  1  0
  7  6  1  0
  6  8  1  0
  8  9  1  0
  9 10  1  0
  9 11  2  0
 10 12  1  0
 12 13  1  0
 13 14  2  0
 15 13  1  0
 14 16  1  0
 14 17  1  0
 18 15  2  0
 16 19  1  0
 16 20  2  0
 17 21  2  0
 21 18  1  0
  4 22  2  0
  4 23  1  0
 24 23  1  0
 24 25  1  0
 25 26  1  0
 25 27  1  0
 26 28  1  0
 27 29  1  0
 27 30  1  0
 30 28  1  0
 28 31  1  0
 30 32  1  0
 33 31  1  0
 34 31  1  0
 35 33  2  0
 33 36  1  0
 37 34  2  0
 38 35  1  0
 36 39  2  0
 36 37  1  0
 40 38  2  0
 40 39  1  0
 39 41  1  0
  6 42  1  6
  7 43  1  0
  7 44  1  0
  8 45  1  0
  8 46  1  0
 12 47  1  0
 12 48  1  0
 15 49  1  0
 17 50  1  0
 18 51  1  0
 21 52  1  0
 24 53  1  0
 24 54  1  0
 25 55  1  0
 27 56  1  0
 28 57  1  0
 29 58  1  0
 30 59  1  0
 32 60  1  0
 34 61  1  0
 38 62  1  0
 41 63  1  0
 41 64  1  0
M  CHG  3   5  -1  16   1  19  -1
M  END
>  <EmbedRMS>  (310) 
0.08736888438974198

$$$$

     RDKit          3D

 64 67  0  0  0  0  0  0  0  0999 V2000
   10.2861   43.7719   33.8047 C   0  0  0  0  0  0  0  0  0  0  0  0
   11.4086   43.5885   34.3612 O   0  0  0  0  0  0  0  0  0  0  0  0
    9.3678   42.7307   33.6989 O   0  0  0  0  0  0  0  0  0  0  0  0
    9.8859   41.2338   34.2836 P   0  0  0  0  0  5  0  0  0  0  0  0
   10.3655   41.4699   35.8743 O   0  0  0  0  0  1  0  0  0  0  0  0
    9.9530   45.1147   33.2535 C   0  0  2  0  0  0  0  0  0  0  0  0
   11.0713   46.0332   33.4764 N   0  0  0  0  0  0  0  0  0  0  0  0
    8.6605   45.6658   33.8891 C   0  0  0  0  0  0  0  0  0  0  0  0
    8.7945   45.8687   35.3691 C   0  0  0  0  0  0  0  0  0  0  0  0
    9.3575   47.0562   35.8528 O   0  0  0  0  0  0  0  0  0  0  0  0
    8.4241   44.9600   36.1619 O   0  0  0  0  0  0  0  0  0  0  0  0
    9.5619   47.3212   37.2415 C   0  0  0  0  0  0  0  0  0  0  0  0
    8.3559   47.9554   37.9115 C   0  0  0  0  0  0  0  0  0  0  0  0
    8.4591   48.5052   39.2210 C   0  0  0  0  0  0  0  0  0  0  0  0
    7.1193   48.0413   37.2356 C   0  0  0  0  0  0  0  0  0  0  0  0
    9.6840   48.4571   39.9770 N   0  0  0  0  0  4  0  0  0  0  0  0
    7.3409   49.1379   39.7926 C   0  0  0  0  0  0  0  0  0  0  0  0
    6.0197   48.6602   37.8309 C   0  0  0  0  0  0  0  0  0  0  0  0
    9.9713   49.4541   40.8810 O   0  0  0  0  0  1  0  0  0  0  0  0
   10.4110   47.4432   39.9541 O   0  0  0  0  0  0  0  0  0  0  0  0
    6.1308   49.2099   39.1045 C   0  0  0  0  0  0  0  0  0  0  0  0
    8.8083   40.1911   34.2076 O   0  0  0  0  0  0  0  0  0  0  0  0
   11.2386   40.7898   33.3687 O   0  0  0  0  0  0  0  0  0  0  0  0
   10.9197   40.6894   31.9949 C   0  0  0  0  0  0  0  0  0  0  0  0
   11.5172   39.3800   31.4397 C   0  0  0  0  0  0  0  0  0  0  0  0
   12.7480   39.0860   32.0732 O   0  0  0  0  0  0  0  0  0  0  0  0
   10.6032   38.1891   31.6666 C   0  0  0  0  0  0  0  0  0  0  0  0
   12.9336   37.6796   32.0279 C   0  0  0  0  0  0  0  0  0  0  0  0
    9.6397   38.0777   30.6456 O   0  0  0  0  0  0  0  0  0  0  0  0
   11.5739   37.0154   31.7057 C   0  0  0  0  0  0  0  0  0  0  0  0
   13.4903   37.2178   33.3231 N   0  0  0  0  0  0  0  0  0  0  0  0
   11.6211   36.3376   30.4695 O   0  0  0  0  0  0  0  0  0  0  0  0
   14.4761   36.3273   33.5725 C   0  0  0  0  0  0  0  0  0  0  0  0
   13.1179   37.6316   34.5684 C   0  0  0  0  0  0  0  0  0  0  0  0
   15.2063   35.6139   32.6737 N   0  0  0  0  0  0  0  0  0  0  0  0
   14.6734   36.2277   34.9180 C   0  0  0  0  0  0  0  0  0  0  0  0
   13.8225   37.0459   35.5779 N   0  0  0  0  0  0  0  0  0  0  0  0
   16.1636   34.7594   33.1546 C   0  0  0  0  0  0  0  0  0  0  0  0
   15.6515   35.3494   35.4129 C   0  0  0  0  0  0  0  0  0  0  0  0
   16.3791   34.6311   34.5041 N   0  0  0  0  0  0  0  0  0  0  0  0
   15.9001   35.1935   36.8088 N   0  0  0  0  0  0  0  0  0  0  0  0
    9.7831   45.0051   32.1587 H   0  0  0  0  0  0  0  0  0  0  0  0
   11.8826   45.7123   32.8981 H   0  0  0  0  0  0  0  0  0  0  0  0
   10.8100   46.9715   33.0946 H   0  0  0  0  0  0  0  0  0  0  0  0
    7.8144   44.9740   33.6827 H   0  0  0  0  0  0  0  0  0  0  0  0
    8.4029   46.6381   33.4165 H   0  0  0  0  0  0  0  0  0  0  0  0
   10.4181   48.0235   37.3231 H   0  0  0  0  0  0  0  0  0  0  0  0
    9.8405   46.3818   37.7653 H   0  0  0  0  0  0  0  0  0  0  0  0
    6.9922   47.6460   36.2383 H   0  0  0  0  0  0  0  0  0  0  0  0
    7.4017   49.5649   40.7856 H   0  0  0  0  0  0  0  0  0  0  0  0
    5.0793   48.7199   37.2981 H   0  0  0  0  0  0  0  0  0  0  0  0
    5.2765   49.6929   39.5611 H   0  0  0  0  0  0  0  0  0  0  0  0
    9.8319   40.7398   31.7546 H   0  0  0  0  0  0  0  0  0  0  0  0
   11.4016   41.5436   31.4731 H   0  0  0  0  0  0  0  0  0  0  0  0
   11.6983   39.5042   30.3470 H   0  0  0  0  0  0  0  0  0  0  0  0
   10.1090   38.2632   32.6649 H   0  0  0  0  0  0  0  0  0  0  0  0
   13.6656   37.4539   31.2207 H   0  0  0  0  0  0  0  0  0  0  0  0
    8.8966   38.6900   30.8852 H   0  0  0  0  0  0  0  0  0  0  0  0
   11.2846   36.3060   32.5175 H   0  0  0  0  0  0  0  0  0  0  0  0
   10.8523   35.7094   30.4590 H   0  0  0  0  0  0  0  0  0  0  0  0
   12.3353   38.3588   34.7439 H   0  0  0  0  0  0  0  0  0  0  0  0
   16.7570   34.1788   32.4619 H   0  0  0  0  0  0  0  0  0  0  0  0
   15.3529   35.7359   37.5136 H   0  0  0  0  0  0  0  0  0  0  0  0
   16.6360   34.5317   37.1414 H   0  0  0  0  0  0  0  0  0  0  0  0
  1  2  2  0
  1  3  1  0
  3  4  1  0
  4  5  1  0
  6  1  1  0
  7  6  1  0
  6  8  1  0
  8  9  1  0
  9 10  1  0
  9 11  2  0
 10 12  1  0
 12 13  1  0
 13 14  2  0
 15 13  1  0
 14 16  1  0
 14 17  1  0
 18 15  2  0
 16 19  1  0
 16 20  2  0
 17 21  2  0
 21 18  1  0
  4 22  2  0
  4 23  1  0
 24 23  1  0
 24 25  1  0
 25 26  1  0
 25 27  1  0
 26 28  1  0
 27 29  1  0
 27 30  1  0
 30 28  1  0
 28 31  1  0
 30 32  1  0
 33 31  1  0
 34 31  1  0
 35 33  2  0
 33 36  1  0
 37 34  2  0
 38 35  1  0
 36 39  2  0
 36 37  1  0
 40 38  2  0
 40 39  1  0
 39 41  1  0
  6 42  1  6
  7 43  1  0
  7 44  1  0
  8 45  1  0
  8 46  1  0
 12 47  1  0
 12 48  1  0
 15 49  1  0
 17 50  1  0
 18 51  1  0
 21 52  1  0
 24 53  1  0
 24 54  1  0
 25 55  1  0
 27 56  1  0
 28 57  1  0
 29 58  1  0
 30 59  1  0
 32 60  1  0
 34 61  1  0
 38 62  1  0
 41 63  1  0
 41 64  1  0
M  CHG  3   5  -1  16   1  19  -1
M  END
>  <EmbedRMS>  (311) 
0.08946811701192549

$$$$

     RDKit          3D

 64 67  0  0  0  0  0  0  0  0999 V2000
   10.2829   43.7755   33.8077 C   0  0  0  0  0  0  0  0  0  0  0  0
   11.4086   43.5913   34.3576 O   0  0  0  0  0  0  0  0  0  0  0  0
    9.3664   42.7321   33.7017 O   0  0  0  0  0  0  0  0  0  0  0  0
    9.8856   41.2349   34.2847 P   0  0  0  0  0  5  0  0  0  0  0  0
   10.3665   41.4698   35.8750 O   0  0  0  0  0  1  0  0  0  0  0  0
    9.9536   45.1117   33.2435 C   0  0  2  0  0  0  0  0  0  0  0  0
   11.0724   46.0270   33.4847 N   0  0  0  0  0  0  0  0  0  0  0  0
    8.6408   45.6447   33.8547 C   0  0  0  0  0  0  0  0  0  0  0  0
    8.2189   46.9284   33.2110 C   0  0  0  0  0  0  0  0  0  0  0  0
    7.6767   46.9034   31.9216 O   0  0  0  0  0  0  0  0  0  0  0  0
    8.3792   48.0200   33.8226 O   0  0  0  0  0  0  0  0  0  0  0  0
    7.2175   48.0713   31.2438 C   0  0  0  0  0  0  0  0  0  0  0  0
    5.9665   48.6143   31.8967 C   0  0  0  0  0  0  0  0  0  0  0  0
    4.8152   47.8090   32.1180 C   0  0  0  0  0  0  0  0  0  0  0  0
    5.9635   49.9514   32.3349 C   0  0  0  0  0  0  0  0  0  0  0  0
    4.7439   46.4385   31.6831 N   0  0  0  0  0  4  0  0  0  0  0  0
    3.7162   48.3609   32.8002 C   0  0  0  0  0  0  0  0  0  0  0  0
    4.8552   50.4826   32.9953 C   0  0  0  0  0  0  0  0  0  0  0  0
    3.9721   45.5367   32.3792 O   0  0  0  0  0  1  0  0  0  0  0  0
    5.2385   46.0872   30.5927 O   0  0  0  0  0  0  0  0  0  0  0  0
    3.7359   49.6877   33.2317 C   0  0  0  0  0  0  0  0  0  0  0  0
    8.8084   40.1917   34.2088 O   0  0  0  0  0  0  0  0  0  0  0  0
   11.2372   40.7914   33.3686 O   0  0  0  0  0  0  0  0  0  0  0  0
   10.9152   40.6899   31.9958 C   0  0  0  0  0  0  0  0  0  0  0  0
   11.5269   39.3898   31.4374 C   0  0  0  0  0  0  0  0  0  0  0  0
   12.7506   39.0917   32.0840 O   0  0  0  0  0  0  0  0  0  0  0  0
   10.6121   38.1916   31.6452 C   0  0  0  0  0  0  0  0  0  0  0  0
   12.9429   37.6853   32.0295 C   0  0  0  0  0  0  0  0  0  0  0  0
    9.6069   38.0858   30.6603 O   0  0  0  0  0  0  0  0  0  0  0  0
   11.5845   37.0186   31.6880 C   0  0  0  0  0  0  0  0  0  0  0  0
   13.4899   37.2163   33.3250 N   0  0  0  0  0  0  0  0  0  0  0  0
   11.6202   36.3063   30.4693 O   0  0  0  0  0  0  0  0  0  0  0  0
   14.4759   36.3263   33.5738 C   0  0  0  0  0  0  0  0  0  0  0  0
   13.1176   37.6307   34.5699 C   0  0  0  0  0  0  0  0  0  0  0  0
   15.2065   35.6139   32.6746 N   0  0  0  0  0  0  0  0  0  0  0  0
   14.6731   36.2267   34.9191 C   0  0  0  0  0  0  0  0  0  0  0  0
   13.8224   37.0450   35.5792 N   0  0  0  0  0  0  0  0  0  0  0  0
   16.1640   34.7596   33.1551 C   0  0  0  0  0  0  0  0  0  0  0  0
   15.6517   35.3489   35.4136 C   0  0  0  0  0  0  0  0  0  0  0  0
   16.3795   34.6310   34.5046 N   0  0  0  0  0  0  0  0  0  0  0  0
   15.9006   35.1931   36.8094 N   0  0  0  0  0  0  0  0  0  0  0  0
    9.8211   44.9849   32.1457 H   0  0  0  0  0  0  0  0  0  0  0  0
   11.0805   46.3200   34.4896 H   0  0  0  0  0  0  0  0  0  0  0  0
   10.9377   46.8882   32.9069 H   0  0  0  0  0  0  0  0  0  0  0  0
    7.8264   44.9038   33.7003 H   0  0  0  0  0  0  0  0  0  0  0  0
    8.7580   45.7902   34.9515 H   0  0  0  0  0  0  0  0  0  0  0  0
    7.0003   47.8200   30.1856 H   0  0  0  0  0  0  0  0  0  0  0  0
    8.0338   48.8267   31.2263 H   0  0  0  0  0  0  0  0  0  0  0  0
    6.8274   50.5852   32.1767 H   0  0  0  0  0  0  0  0  0  0  0  0
    2.8311   47.7655   32.9849 H   0  0  0  0  0  0  0  0  0  0  0  0
    4.8675   51.5116   33.3307 H   0  0  0  0  0  0  0  0  0  0  0  0
    2.8792   50.1012   33.7482 H   0  0  0  0  0  0  0  0  0  0  0  0
    9.8250   40.7188   31.7590 H   0  0  0  0  0  0  0  0  0  0  0  0
   11.3817   41.5526   31.4737 H   0  0  0  0  0  0  0  0  0  0  0  0
   11.7318   39.5337   30.3520 H   0  0  0  0  0  0  0  0  0  0  0  0
   10.1214   38.2682   32.6413 H   0  0  0  0  0  0  0  0  0  0  0  0
   13.6882   37.4709   31.2319 H   0  0  0  0  0  0  0  0  0  0  0  0
   10.0256   38.1751   29.7656 H   0  0  0  0  0  0  0  0  0  0  0  0
   11.2796   36.3124   32.4916 H   0  0  0  0  0  0  0  0  0  0  0  0
   11.9872   36.9099   29.7715 H   0  0  0  0  0  0  0  0  0  0  0  0
   12.3365   38.3595   34.7453 H   0  0  0  0  0  0  0  0  0  0  0  0
   16.7576   34.1794   32.4622 H   0  0  0  0  0  0  0  0  0  0  0  0
   15.3532   35.7351   37.5143 H   0  0  0  0  0  0  0  0  0  0  0  0
   16.6368   34.5316   37.1418 H   0  0  0  0  0  0  0  0  0  0  0  0
  1  2  2  0
  1  3  1  0
  3  4  1  0
  4  5  1  0
  6  1  1  0
  7  6  1  0
  6  8  1  0
  8  9  1  0
  9 10  1  0
  9 11  2  0
 10 12  1  0
 12 13  1  0
 13 14  2  0
 15 13  1  0
 14 16  1  0
 14 17  1  0
 18 15  2  0
 16 19  1  0
 16 20  2  0
 17 21  2  0
 21 18  1  0
  4 22  2  0
  4 23  1  0
 24 23  1  0
 24 25  1  0
 25 26  1  0
 25 27  1  0
 26 28  1  0
 27 29  1  0
 27 30  1  0
 30 28  1  0
 28 31  1  0
 30 32  1  0
 33 31  1  0
 34 31  1  0
 35 33  2  0
 33 36  1  0
 37 34  2  0
 38 35  1  0
 36 39  2  0
 36 37  1  0
 40 38  2  0
 40 39  1  0
 39 41  1  0
  6 42  1  6
  7 43  1  0
  7 44  1  0
  8 45  1  0
  8 46  1  0
 12 47  1  0
 12 48  1  0
 15 49  1  0
 17 50  1  0
 18 51  1  0
 21 52  1  0
 24 53  1  0
 24 54  1  0
 25 55  1  0
 27 56  1  0
 28 57  1  0
 29 58  1  0
 30 59  1  0
 32 60  1  0
 34 61  1  0
 38 62  1  0
 41 63  1  0
 41 64  1  0
M  CHG  3   5  -1  16   1  19  -1
M  END
>  <EmbedRMS>  (312) 
0.08670627827848382

$$$$

     RDKit          3D

 64 67  0  0  0  0  0  0  0  0999 V2000
   10.2865   43.7715   33.8017 C   0  0  0  0  0  0  0  0  0  0  0  0
   11.4107   43.5873   34.3545 O   0  0  0  0  0  0  0  0  0  0  0  0
    9.3666   42.7310   33.7000 O   0  0  0  0  0  0  0  0  0  0  0  0
    9.8847   41.2344   34.2852 P   0  0  0  0  0  5  0  0  0  0  0  0
   10.3694   41.4699   35.8739 O   0  0  0  0  0  1  0  0  0  0  0  0
    9.9616   45.1097   33.2359 C   0  0  2  0  0  0  0  0  0  0  0  0
   11.0629   46.0389   33.4966 N   0  0  0  0  0  0  0  0  0  0  0  0
    8.6124   45.6550   33.7579 C   0  0  0  0  0  0  0  0  0  0  0  0
    8.5492   45.7350   35.2552 C   0  0  0  0  0  0  0  0  0  0  0  0
    8.4296   44.5563   35.9948 O   0  0  0  0  0  0  0  0  0  0  0  0
    8.6178   46.8546   35.8319 O   0  0  0  0  0  0  0  0  0  0  0  0
    8.3189   44.5314   37.4130 C   0  0  0  0  0  0  0  0  0  0  0  0
    8.2880   43.1001   37.8888 C   0  0  0  0  0  0  0  0  0  0  0  0
    7.3914   42.1419   37.3425 C   0  0  0  0  0  0  0  0  0  0  0  0
    9.2128   42.6936   38.8686 C   0  0  0  0  0  0  0  0  0  0  0  0
    6.4068   42.4998   36.3557 N   0  0  0  0  0  4  0  0  0  0  0  0
    7.4801   40.8025   37.7641 C   0  0  0  0  0  0  0  0  0  0  0  0
    9.2716   41.3630   39.2848 C   0  0  0  0  0  0  0  0  0  0  0  0
    5.7078   43.6800   36.4579 O   0  0  0  0  0  1  0  0  0  0  0  0
    6.0653   41.6740   35.4839 O   0  0  0  0  0  0  0  0  0  0  0  0
    8.4118   40.4182   38.7289 C   0  0  0  0  0  0  0  0  0  0  0  0
    8.8069   40.1917   34.2117 O   0  0  0  0  0  0  0  0  0  0  0  0
   11.2358   40.7893   33.3685 O   0  0  0  0  0  0  0  0  0  0  0  0
   10.9142   40.6879   31.9955 C   0  0  0  0  0  0  0  0  0  0  0  0
   11.5256   39.3872   31.4368 C   0  0  0  0  0  0  0  0  0  0  0  0
   12.7488   39.0895   32.0821 O   0  0  0  0  0  0  0  0  0  0  0  0
   10.6121   38.1892   31.6463 C   0  0  0  0  0  0  0  0  0  0  0  0
   12.9372   37.6829   32.0302 C   0  0  0  0  0  0  0  0  0  0  0  0
    9.6149   38.0837   30.6539 O   0  0  0  0  0  0  0  0  0  0  0  0
   11.5793   37.0137   31.7014 C   0  0  0  0  0  0  0  0  0  0  0  0
   13.4906   37.2171   33.3243 N   0  0  0  0  0  0  0  0  0  0  0  0
   11.6218   36.3253   30.4726 O   0  0  0  0  0  0  0  0  0  0  0  0
   14.4762   36.3267   33.5731 C   0  0  0  0  0  0  0  0  0  0  0  0
   13.1181   37.6310   34.5695 C   0  0  0  0  0  0  0  0  0  0  0  0
   15.2064   35.6138   32.6740 N   0  0  0  0  0  0  0  0  0  0  0  0
   14.6735   36.2270   34.9185 C   0  0  0  0  0  0  0  0  0  0  0  0
   13.8228   37.0451   35.5788 N   0  0  0  0  0  0  0  0  0  0  0  0
   16.1638   34.7593   33.1546 C   0  0  0  0  0  0  0  0  0  0  0  0
   15.6518   35.3489   35.4132 C   0  0  0  0  0  0  0  0  0  0  0  0
   16.3794   34.6308   34.5041 N   0  0  0  0  0  0  0  0  0  0  0  0
   15.9005   35.1931   36.8090 N   0  0  0  0  0  0  0  0  0  0  0  0
    9.8717   44.9834   32.1346 H   0  0  0  0  0  0  0  0  0  0  0  0
   11.1088   46.2592   34.5183 H   0  0  0  0  0  0  0  0  0  0  0  0
   10.8690   46.9359   32.9946 H   0  0  0  0  0  0  0  0  0  0  0  0
    7.7905   44.9936   33.4077 H   0  0  0  0  0  0  0  0  0  0  0  0
    8.4260   46.6600   33.3204 H   0  0  0  0  0  0  0  0  0  0  0  0
    9.1843   45.0760   37.8508 H   0  0  0  0  0  0  0  0  0  0  0  0
    7.3943   45.0548   37.7354 H   0  0  0  0  0  0  0  0  0  0  0  0
    9.9041   43.4050   39.3033 H   0  0  0  0  0  0  0  0  0  0  0  0
    6.8135   40.0544   37.3539 H   0  0  0  0  0  0  0  0  0  0  0  0
    9.9923   41.0623   40.0342 H   0  0  0  0  0  0  0  0  0  0  0  0
    8.4641   39.3856   39.0490 H   0  0  0  0  0  0  0  0  0  0  0  0
   11.3810   41.5505   31.4736 H   0  0  0  0  0  0  0  0  0  0  0  0
    9.8239   40.7172   31.7591 H   0  0  0  0  0  0  0  0  0  0  0  0
   11.7285   39.5291   30.3507 H   0  0  0  0  0  0  0  0  0  0  0  0
   10.1137   38.2715   32.6381 H   0  0  0  0  0  0  0  0  0  0  0  0
   13.6725   37.4640   31.2241 H   0  0  0  0  0  0  0  0  0  0  0  0
   10.0535   38.1084   29.7640 H   0  0  0  0  0  0  0  0  0  0  0  0
   11.2648   36.3134   32.5108 H   0  0  0  0  0  0  0  0  0  0  0  0
   12.1551   35.5033   30.6317 H   0  0  0  0  0  0  0  0  0  0  0  0
   12.3362   38.3588   34.7452 H   0  0  0  0  0  0  0  0  0  0  0  0
   16.7572   34.1789   32.4618 H   0  0  0  0  0  0  0  0  0  0  0  0
   15.3533   35.7352   37.5139 H   0  0  0  0  0  0  0  0  0  0  0  0
   16.6365   34.5313   37.1415 H   0  0  0  0  0  0  0  0  0  0  0  0
  1  2  2  0
  1  3  1  0
  3  4  1  0
  4  5  1  0
  6  1  1  0
  7  6  1  0
  6  8  1  0
  8  9  1  0
  9 10  1  0
  9 11  2  0
 10 12  1  0
 12 13  1  0
 13 14  2  0
 15 13  1  0
 14 16  1  0
 14 17  1  0
 18 15  2  0
 16 19  1  0
 16 20  2  0
 17 21  2  0
 21 18  1  0
  4 22  2  0
  4 23  1  0
 24 23  1  0
 24 25  1  0
 25 26  1  0
 25 27  1  0
 26 28  1  0
 27 29  1  0
 27 30  1  0
 30 28  1  0
 28 31  1  0
 30 32  1  0
 33 31  1  0
 34 31  1  0
 35 33  2  0
 33 36  1  0
 37 34  2  0
 38 35  1  0
 36 39  2  0
 36 37  1  0
 40 38  2  0
 40 39  1  0
 39 41  1  0
  6 42  1  6
  7 43  1  0
  7 44  1  0
  8 45  1  0
  8 46  1  0
 12 47  1  0
 12 48  1  0
 15 49  1  0
 17 50  1  0
 18 51  1  0
 21 52  1  0
 24 53  1  0
 24 54  1  0
 25 55  1  0
 27 56  1  0
 28 57  1  0
 29 58  1  0
 30 59  1  0
 32 60  1  0
 34 61  1  0
 38 62  1  0
 41 63  1  0
 41 64  1  0
M  CHG  3   5  -1  16   1  19  -1
M  END
>  <EmbedRMS>  (313) 
0.08773027477849071

$$$$

     RDKit          3D

 64 67  0  0  0  0  0  0  0  0999 V2000
   10.2806   43.7757   33.8104 C   0  0  0  0  0  0  0  0  0  0  0  0
   11.4037   43.5919   34.3661 O   0  0  0  0  0  0  0  0  0  0  0  0
    9.3701   42.7290   33.6953 O   0  0  0  0  0  0  0  0  0  0  0  0
    9.8873   41.2333   34.2822 P   0  0  0  0  0  5  0  0  0  0  0  0
   10.3669   41.4700   35.8729 O   0  0  0  0  0  1  0  0  0  0  0  0
    9.9452   45.1221   33.2614 C   0  0  2  0  0  0  0  0  0  0  0  0
   11.0810   46.0230   33.4657 N   0  0  0  0  0  0  0  0  0  0  0  0
    8.6950   45.7068   33.9569 C   0  0  0  0  0  0  0  0  0  0  0  0
    7.4218   45.0262   33.5208 C   0  0  0  0  0  0  0  0  0  0  0  0
    6.7575   45.3600   32.3331 O   0  0  0  0  0  0  0  0  0  0  0  0
    6.9444   44.1084   34.2387 O   0  0  0  0  0  0  0  0  0  0  0  0
    7.0999   46.4697   31.5036 C   0  0  0  0  0  0  0  0  0  0  0  0
    6.2248   46.5142   30.2712 C   0  0  0  0  0  0  0  0  0  0  0  0
    5.9458   47.7369   29.6021 C   0  0  0  0  0  0  0  0  0  0  0  0
    5.7004   45.3153   29.7479 C   0  0  0  0  0  0  0  0  0  0  0  0
    6.5334   48.9825   30.0176 N   0  0  0  0  0  4  0  0  0  0  0  0
    5.0808   47.7320   28.4937 C   0  0  0  0  0  0  0  0  0  0  0  0
    4.8602   45.3308   28.6338 C   0  0  0  0  0  0  0  0  0  0  0  0
    5.8466   50.1606   29.8337 O   0  0  0  0  0  1  0  0  0  0  0  0
    7.7331   49.0339   30.3587 O   0  0  0  0  0  0  0  0  0  0  0  0
    4.5411   46.5376   28.0157 C   0  0  0  0  0  0  0  0  0  0  0  0
    8.8089   40.1913   34.2074 O   0  0  0  0  0  0  0  0  0  0  0  0
   11.2385   40.7894   33.3656 O   0  0  0  0  0  0  0  0  0  0  0  0
   10.9153   40.6848   31.9928 C   0  0  0  0  0  0  0  0  0  0  0  0
   11.5170   39.3771   31.4389 C   0  0  0  0  0  0  0  0  0  0  0  0
   12.7475   39.0852   32.0735 O   0  0  0  0  0  0  0  0  0  0  0  0
   10.6048   38.1868   31.6669 C   0  0  0  0  0  0  0  0  0  0  0  0
   12.9346   37.6788   32.0281 C   0  0  0  0  0  0  0  0  0  0  0  0
    9.6378   38.0918   30.6489 O   0  0  0  0  0  0  0  0  0  0  0  0
   11.5761   37.0128   31.7056 C   0  0  0  0  0  0  0  0  0  0  0  0
   13.4909   37.2176   33.3233 N   0  0  0  0  0  0  0  0  0  0  0  0
   11.6233   36.3370   30.4684 O   0  0  0  0  0  0  0  0  0  0  0  0
   14.4765   36.3271   33.5727 C   0  0  0  0  0  0  0  0  0  0  0  0
   13.1182   37.6315   34.5685 C   0  0  0  0  0  0  0  0  0  0  0  0
   15.2066   35.6137   32.6739 N   0  0  0  0  0  0  0  0  0  0  0  0
   14.6736   36.2276   34.9182 C   0  0  0  0  0  0  0  0  0  0  0  0
   13.8227   37.0457   35.5781 N   0  0  0  0  0  0  0  0  0  0  0  0
   16.1638   34.7592   33.1548 C   0  0  0  0  0  0  0  0  0  0  0  0
   15.6517   35.3492   35.4131 C   0  0  0  0  0  0  0  0  0  0  0  0
   16.3793   34.6309   34.5043 N   0  0  0  0  0  0  0  0  0  0  0  0
   15.9002   35.1934   36.8090 N   0  0  0  0  0  0  0  0  0  0  0  0
    9.7586   45.0162   32.1699 H   0  0  0  0  0  0  0  0  0  0  0  0
   10.8432   46.9557   33.0554 H   0  0  0  0  0  0  0  0  0  0  0  0
   11.8875   45.6733   32.8972 H   0  0  0  0  0  0  0  0  0  0  0  0
    8.8054   45.6202   35.0608 H   0  0  0  0  0  0  0  0  0  0  0  0
    8.6103   46.7920   33.7394 H   0  0  0  0  0  0  0  0  0  0  0  0
    8.1580   46.3938   31.1795 H   0  0  0  0  0  0  0  0  0  0  0  0
    6.9596   47.3964   32.0994 H   0  0  0  0  0  0  0  0  0  0  0  0
    5.9317   44.3620   30.2061 H   0  0  0  0  0  0  0  0  0  0  0  0
    4.8456   48.6548   27.9788 H   0  0  0  0  0  0  0  0  0  0  0  0
    4.4538   44.4037   28.2503 H   0  0  0  0  0  0  0  0  0  0  0  0
    3.8867   46.5467   27.1536 H   0  0  0  0  0  0  0  0  0  0  0  0
   11.3886   41.5413   31.4669 H   0  0  0  0  0  0  0  0  0  0  0  0
    9.8253   40.7216   31.7560 H   0  0  0  0  0  0  0  0  0  0  0  0
   11.6989   39.5010   30.3463 H   0  0  0  0  0  0  0  0  0  0  0  0
   10.1098   38.2773   32.6628 H   0  0  0  0  0  0  0  0  0  0  0  0
   13.6673   37.4539   31.2212 H   0  0  0  0  0  0  0  0  0  0  0  0
    8.9778   37.4160   30.9536 H   0  0  0  0  0  0  0  0  0  0  0  0
   11.2859   36.3041   32.5176 H   0  0  0  0  0  0  0  0  0  0  0  0
   10.8688   35.6918   30.4657 H   0  0  0  0  0  0  0  0  0  0  0  0
   12.3355   38.3586   34.7438 H   0  0  0  0  0  0  0  0  0  0  0  0
   16.7572   34.1786   32.4621 H   0  0  0  0  0  0  0  0  0  0  0  0
   16.6361   34.5315   37.1416 H   0  0  0  0  0  0  0  0  0  0  0  0
   15.3530   35.7358   37.5138 H   0  0  0  0  0  0  0  0  0  0  0  0
  1  2  2  0
  1  3  1  0
  3  4  1  0
  4  5  1  0
  6  1  1  0
  7  6  1  0
  6  8  1  0
  8  9  1  0
  9 10  1  0
  9 11  2  0
 10 12  1  0
 12 13  1  0
 13 14  2  0
 15 13  1  0
 14 16  1  0
 14 17  1  0
 18 15  2  0
 16 19  1  0
 16 20  2  0
 17 21  2  0
 21 18  1  0
  4 22  2  0
  4 23  1  0
 24 23  1  0
 24 25  1  0
 25 26  1  0
 25 27  1  0
 26 28  1  0
 27 29  1  0
 27 30  1  0
 30 28  1  0
 28 31  1  0
 30 32  1  0
 33 31  1  0
 34 31  1  0
 35 33  2  0
 33 36  1  0
 37 34  2  0
 38 35  1  0
 36 39  2  0
 36 37  1  0
 40 38  2  0
 40 39  1  0
 39 41  1  0
  6 42  1  6
  7 43  1  0
  7 44  1  0
  8 45  1  0
  8 46  1  0
 12 47  1  0
 12 48  1  0
 15 49  1  0
 17 50  1  0
 18 51  1  0
 21 52  1  0
 24 53  1  0
 24 54  1  0
 25 55  1  0
 27 56  1  0
 28 57  1  0
 29 58  1  0
 30 59  1  0
 32 60  1  0
 34 61  1  0
 38 62  1  0
 41 63  1  0
 41 64  1  0
M  CHG  3   5  -1  16   1  19  -1
M  END
>  <EmbedRMS>  (314) 
0.08942007295602665

$$$$

     RDKit          3D

 64 67  0  0  0  0  0  0  0  0999 V2000
   10.2859   43.7720   33.8047 C   0  0  0  0  0  0  0  0  0  0  0  0
   11.4085   43.5885   34.3611 O   0  0  0  0  0  0  0  0  0  0  0  0
    9.3674   42.7309   33.6992 O   0  0  0  0  0  0  0  0  0  0  0  0
    9.8853   41.2341   34.2839 P   0  0  0  0  0  5  0  0  0  0  0  0
   10.3659   41.4701   35.8743 O   0  0  0  0  0  1  0  0  0  0  0  0
    9.9530   45.1148   33.2533 C   0  0  2  0  0  0  0  0  0  0  0  0
   11.0714   46.0331   33.4766 N   0  0  0  0  0  0  0  0  0  0  0  0
    8.6601   45.6656   33.8886 C   0  0  0  0  0  0  0  0  0  0  0  0
    8.7890   45.8545   35.3711 C   0  0  0  0  0  0  0  0  0  0  0  0
    9.4403   46.9877   35.8645 O   0  0  0  0  0  0  0  0  0  0  0  0
    8.3403   44.9761   36.1575 O   0  0  0  0  0  0  0  0  0  0  0  0
    9.6220   47.2268   37.2565 C   0  0  0  0  0  0  0  0  0  0  0  0
   10.3445   48.5355   37.4587 C   0  0  0  0  0  0  0  0  0  0  0  0
    9.8778   49.7526   36.8916 C   0  0  0  0  0  0  0  0  0  0  0  0
   11.5373   48.5395   38.2058 C   0  0  0  0  0  0  0  0  0  0  0  0
    8.6557   49.8192   36.1333 N   0  0  0  0  0  4  0  0  0  0  0  0
   10.6390   50.9237   37.0636 C   0  0  0  0  0  0  0  0  0  0  0  0
   12.2678   49.7160   38.3766 C   0  0  0  0  0  0  0  0  0  0  0  0
    7.5425   49.1159   36.5303 O   0  0  0  0  0  1  0  0  0  0  0  0
    8.5436   50.6400   35.1991 O   0  0  0  0  0  0  0  0  0  0  0  0
   11.8222   50.9045   37.8027 C   0  0  0  0  0  0  0  0  0  0  0  0
    8.8077   40.1913   34.2086 O   0  0  0  0  0  0  0  0  0  0  0  0
   11.2370   40.7898   33.3680 O   0  0  0  0  0  0  0  0  0  0  0  0
   10.9154   40.6881   31.9949 C   0  0  0  0  0  0  0  0  0  0  0  0
   11.5261   39.3871   31.4365 C   0  0  0  0  0  0  0  0  0  0  0  0
   12.7491   39.0893   32.0819 O   0  0  0  0  0  0  0  0  0  0  0  0
   10.6123   38.1893   31.6461 C   0  0  0  0  0  0  0  0  0  0  0  0
   12.9373   37.6827   32.0301 C   0  0  0  0  0  0  0  0  0  0  0  0
    9.6150   38.0838   30.6538 O   0  0  0  0  0  0  0  0  0  0  0  0
   11.5793   37.0136   31.7014 C   0  0  0  0  0  0  0  0  0  0  0  0
   13.4906   37.2169   33.3242 N   0  0  0  0  0  0  0  0  0  0  0  0
   11.6216   36.3252   30.4725 O   0  0  0  0  0  0  0  0  0  0  0  0
   14.4763   36.3266   33.5731 C   0  0  0  0  0  0  0  0  0  0  0  0
   13.1182   37.6308   34.5694 C   0  0  0  0  0  0  0  0  0  0  0  0
   15.2065   35.6137   32.6740 N   0  0  0  0  0  0  0  0  0  0  0  0
   14.6736   36.2270   34.9185 C   0  0  0  0  0  0  0  0  0  0  0  0
   13.8229   37.0451   35.5787 N   0  0  0  0  0  0  0  0  0  0  0  0
   16.1639   34.7593   33.1547 C   0  0  0  0  0  0  0  0  0  0  0  0
   15.6519   35.3489   35.4132 C   0  0  0  0  0  0  0  0  0  0  0  0
   16.3794   34.6308   34.5042 N   0  0  0  0  0  0  0  0  0  0  0  0
   15.9006   35.1931   36.8090 N   0  0  0  0  0  0  0  0  0  0  0  0
    9.7835   45.0054   32.1585 H   0  0  0  0  0  0  0  0  0  0  0  0
   10.8101   46.9721   33.0964 H   0  0  0  0  0  0  0  0  0  0  0  0
   11.8825   45.7130   32.8976 H   0  0  0  0  0  0  0  0  0  0  0  0
    7.8125   44.9789   33.6712 H   0  0  0  0  0  0  0  0  0  0  0  0
    8.4089   46.6437   33.4247 H   0  0  0  0  0  0  0  0  0  0  0  0
   10.2002   46.3819   37.6913 H   0  0  0  0  0  0  0  0  0  0  0  0
    8.6409   47.2571   37.7753 H   0  0  0  0  0  0  0  0  0  0  0  0
   11.9121   47.6263   38.6517 H   0  0  0  0  0  0  0  0  0  0  0  0
   10.3053   51.8610   36.6365 H   0  0  0  0  0  0  0  0  0  0  0  0
   13.1853   49.7042   38.9507 H   0  0  0  0  0  0  0  0  0  0  0  0
   12.3930   51.8148   37.9335 H   0  0  0  0  0  0  0  0  0  0  0  0
   11.3827   41.5503   31.4728 H   0  0  0  0  0  0  0  0  0  0  0  0
    9.8252   40.7180   31.7580 H   0  0  0  0  0  0  0  0  0  0  0  0
   11.7291   39.5287   30.3504 H   0  0  0  0  0  0  0  0  0  0  0  0
   10.1139   38.2718   32.6380 H   0  0  0  0  0  0  0  0  0  0  0  0
   13.6726   37.4636   31.2240 H   0  0  0  0  0  0  0  0  0  0  0  0
   10.0536   38.1085   29.7639 H   0  0  0  0  0  0  0  0  0  0  0  0
   11.2646   36.3134   32.5107 H   0  0  0  0  0  0  0  0  0  0  0  0
   12.1549   35.5032   30.6315 H   0  0  0  0  0  0  0  0  0  0  0  0
   12.3362   38.3586   34.7450 H   0  0  0  0  0  0  0  0  0  0  0  0
   16.7573   34.1788   32.4619 H   0  0  0  0  0  0  0  0  0  0  0  0
   16.6366   34.5314   37.1415 H   0  0  0  0  0  0  0  0  0  0  0  0
   15.3533   35.7353   37.5139 H   0  0  0  0  0  0  0  0  0  0  0  0
  1  2  2  0
  1  3  1  0
  3  4  1  0
  4  5  1  0
  6  1  1  0
  7  6  1  0
  6  8  1  0
  8  9  1  0
  9 10  1  0
  9 11  2  0
 10 12  1  0
 12 13  1  0
 13 14  2  0
 15 13  1  0
 14 16  1  0
 14 17  1  0
 18 15  2  0
 16 19  1  0
 16 20  2  0
 17 21  2  0
 21 18  1  0
  4 22  2  0
  4 23  1  0
 24 23  1  0
 24 25  1  0
 25 26  1  0
 25 27  1  0
 26 28  1  0
 27 29  1  0
 27 30  1  0
 30 28  1  0
 28 31  1  0
 30 32  1  0
 33 31  1  0
 34 31  1  0
 35 33  2  0
 33 36  1  0
 37 34  2  0
 38 35  1  0
 36 39  2  0
 36 37  1  0
 40 38  2  0
 40 39  1  0
 39 41  1  0
  6 42  1  6
  7 43  1  0
  7 44  1  0
  8 45  1  0
  8 46  1  0
 12 47  1  0
 12 48  1  0
 15 49  1  0
 17 50  1  0
 18 51  1  0
 21 52  1  0
 24 53  1  0
 24 54  1  0
 25 55  1  0
 27 56  1  0
 28 57  1  0
 29 58  1  0
 30 59  1  0
 32 60  1  0
 34 61  1  0
 38 62  1  0
 41 63  1  0
 41 64  1  0
M  CHG  3   5  -1  16   1  19  -1
M  END
>  <EmbedRMS>  (315) 
0.0879254861350881

$$$$

     RDKit          3D

 64 67  0  0  0  0  0  0  0  0999 V2000
   10.2872   43.7711   33.8021 C   0  0  0  0  0  0  0  0  0  0  0  0
   11.4094   43.5877   34.3592 O   0  0  0  0  0  0  0  0  0  0  0  0
    9.3679   42.7306   33.6978 O   0  0  0  0  0  0  0  0  0  0  0  0
    9.8855   41.2341   34.2833 P   0  0  0  0  0  5  0  0  0  0  0  0
   10.3660   41.4708   35.8738 O   0  0  0  0  0  1  0  0  0  0  0  0
    9.9517   45.1157   33.2561 C   0  0  2  0  0  0  0  0  0  0  0  0
   11.0708   46.0334   33.4776 N   0  0  0  0  0  0  0  0  0  0  0  0
    8.6629   45.6649   33.9011 C   0  0  0  0  0  0  0  0  0  0  0  0
    8.7981   45.8346   35.3853 C   0  0  0  0  0  0  0  0  0  0  0  0
    8.5514   44.7426   36.2248 O   0  0  0  0  0  0  0  0  0  0  0  0
    9.1686   46.9430   35.8584 O   0  0  0  0  0  0  0  0  0  0  0  0
    8.6982   44.7888   37.6429 C   0  0  0  0  0  0  0  0  0  0  0  0
    7.6284   45.6554   38.2675 C   0  0  0  0  0  0  0  0  0  0  0  0
    7.9194   46.6664   39.2203 C   0  0  0  0  0  0  0  0  0  0  0  0
    6.2853   45.3711   37.9602 C   0  0  0  0  0  0  0  0  0  0  0  0
    9.2679   47.0082   39.5729 N   0  0  0  0  0  4  0  0  0  0  0  0
    6.8609   47.3545   39.8387 C   0  0  0  0  0  0  0  0  0  0  0  0
    5.2484   46.0771   38.5718 C   0  0  0  0  0  0  0  0  0  0  0  0
   10.1571   47.3908   38.5959 O   0  0  0  0  0  1  0  0  0  0  0  0
    9.5644   47.2089   40.7687 O   0  0  0  0  0  0  0  0  0  0  0  0
    5.5355   47.0650   39.5118 C   0  0  0  0  0  0  0  0  0  0  0  0
    8.8075   40.1916   34.2087 O   0  0  0  0  0  0  0  0  0  0  0  0
   11.2368   40.7898   33.3664 O   0  0  0  0  0  0  0  0  0  0  0  0
   10.9137   40.6842   31.9935 C   0  0  0  0  0  0  0  0  0  0  0  0
   11.5175   39.3773   31.4395 C   0  0  0  0  0  0  0  0  0  0  0  0
   12.7478   39.0868   32.0756 O   0  0  0  0  0  0  0  0  0  0  0  0
   10.6069   38.1851   31.6657 C   0  0  0  0  0  0  0  0  0  0  0  0
   12.9372   37.6810   32.0290 C   0  0  0  0  0  0  0  0  0  0  0  0
    9.6404   38.0883   30.6475 O   0  0  0  0  0  0  0  0  0  0  0  0
   11.5789   37.0134   31.7045 C   0  0  0  0  0  0  0  0  0  0  0  0
   13.4915   37.2182   33.3239 N   0  0  0  0  0  0  0  0  0  0  0  0
   11.6125   36.3389   30.4673 O   0  0  0  0  0  0  0  0  0  0  0  0
   14.4766   36.3272   33.5730 C   0  0  0  0  0  0  0  0  0  0  0  0
   13.1184   37.6317   34.5690 C   0  0  0  0  0  0  0  0  0  0  0  0
   15.2066   35.6139   32.6741 N   0  0  0  0  0  0  0  0  0  0  0  0
   14.6735   36.2273   34.9184 C   0  0  0  0  0  0  0  0  0  0  0  0
   13.8227   37.0455   35.5785 N   0  0  0  0  0  0  0  0  0  0  0  0
   16.1638   34.7593   33.1548 C   0  0  0  0  0  0  0  0  0  0  0  0
   15.6517   35.3491   35.4132 C   0  0  0  0  0  0  0  0  0  0  0  0
   16.3792   34.6308   34.5043 N   0  0  0  0  0  0  0  0  0  0  0  0
   15.9004   35.1932   36.8091 N   0  0  0  0  0  0  0  0  0  0  0  0
    9.7765   45.0101   32.1618 H   0  0  0  0  0  0  0  0  0  0  0  0
   11.8801   45.7137   32.8959 H   0  0  0  0  0  0  0  0  0  0  0  0
   10.8084   46.9726   33.0988 H   0  0  0  0  0  0  0  0  0  0  0  0
    7.8158   44.9763   33.6913 H   0  0  0  0  0  0  0  0  0  0  0  0
    8.4047   46.6428   33.4393 H   0  0  0  0  0  0  0  0  0  0  0  0
    9.7277   45.1063   37.8970 H   0  0  0  0  0  0  0  0  0  0  0  0
    8.5818   43.7578   38.0382 H   0  0  0  0  0  0  0  0  0  0  0  0
    6.0401   44.5898   37.2509 H   0  0  0  0  0  0  0  0  0  0  0  0
    7.0663   48.1293   40.5668 H   0  0  0  0  0  0  0  0  0  0  0  0
    4.2196   45.8496   38.3240 H   0  0  0  0  0  0  0  0  0  0  0  0
    4.7297   47.6074   39.9893 H   0  0  0  0  0  0  0  0  0  0  0  0
   11.3853   41.5414   31.4672 H   0  0  0  0  0  0  0  0  0  0  0  0
    9.8235   40.7188   31.7572 H   0  0  0  0  0  0  0  0  0  0  0  0
   11.7006   39.5019   30.3472 H   0  0  0  0  0  0  0  0  0  0  0  0
   10.1097   38.2751   32.6606 H   0  0  0  0  0  0  0  0  0  0  0  0
   13.6713   37.4591   31.2227 H   0  0  0  0  0  0  0  0  0  0  0  0
    9.0033   37.3836   30.9351 H   0  0  0  0  0  0  0  0  0  0  0  0
   11.2706   36.3048   32.5088 H   0  0  0  0  0  0  0  0  0  0  0  0
   12.1443   35.5136   30.6141 H   0  0  0  0  0  0  0  0  0  0  0  0
   12.3362   38.3592   34.7445 H   0  0  0  0  0  0  0  0  0  0  0  0
   16.7571   34.1787   32.4620 H   0  0  0  0  0  0  0  0  0  0  0  0
   15.3531   35.7355   37.5139 H   0  0  0  0  0  0  0  0  0  0  0  0
   16.6362   34.5314   37.1416 H   0  0  0  0  0  0  0  0  0  0  0  0
  1  2  2  0
  1  3  1  0
  3  4  1  0
  4  5  1  0
  6  1  1  0
  7  6  1  0
  6  8  1  0
  8  9  1  0
  9 10  1  0
  9 11  2  0
 10 12  1  0
 12 13  1  0
 13 14  2  0
 15 13  1  0
 14 16  1  0
 14 17  1  0
 18 15  2  0
 16 19  1  0
 16 20  2  0
 17 21  2  0
 21 18  1  0
  4 22  2  0
  4 23  1  0
 24 23  1  0
 24 25  1  0
 25 26  1  0
 25 27  1  0
 26 28  1  0
 27 29  1  0
 27 30  1  0
 30 28  1  0
 28 31  1  0
 30 32  1  0
 33 31  1  0
 34 31  1  0
 35 33  2  0
 33 36  1  0
 37 34  2  0
 38 35  1  0
 36 39  2  0
 36 37  1  0
 40 38  2  0
 40 39  1  0
 39 41  1  0
  6 42  1  6
  7 43  1  0
  7 44  1  0
  8 45  1  0
  8 46  1  0
 12 47  1  0
 12 48  1  0
 15 49  1  0
 17 50  1  0
 18 51  1  0
 21 52  1  0
 24 53  1  0
 24 54  1  0
 25 55  1  0
 27 56  1  0
 28 57  1  0
 29 58  1  0
 30 59  1  0
 32 60  1  0
 34 61  1  0
 38 62  1  0
 41 63  1  0
 41 64  1  0
M  CHG  3   5  -1  16   1  19  -1
M  END
>  <EmbedRMS>  (316) 
0.08884967648278318

$$$$

     RDKit          3D

 64 67  0  0  0  0  0  0  0  0999 V2000
   10.2843   43.7743   33.8068 C   0  0  0  0  0  0  0  0  0  0  0  0
   11.4068   43.5903   34.3635 O   0  0  0  0  0  0  0  0  0  0  0  0
    9.3678   42.7311   33.6989 O   0  0  0  0  0  0  0  0  0  0  0  0
    9.8856   41.2344   34.2840 P   0  0  0  0  0  5  0  0  0  0  0  0
   10.3659   41.4699   35.8746 O   0  0  0  0  0  1  0  0  0  0  0  0
    9.9491   45.1166   33.2549 C   0  0  2  0  0  0  0  0  0  0  0  0
   11.0755   46.0280   33.4732 N   0  0  0  0  0  0  0  0  0  0  0  0
    8.6782   45.6533   33.9430 C   0  0  0  0  0  0  0  0  0  0  0  0
    8.1799   46.9039   33.2873 C   0  0  0  0  0  0  0  0  0  0  0  0
    8.4949   48.1453   33.8463 O   0  0  0  0  0  0  0  0  0  0  0  0
    7.5075   46.8287   32.2227 O   0  0  0  0  0  0  0  0  0  0  0  0
    8.0738   49.3779   33.2708 C   0  0  0  0  0  0  0  0  0  0  0  0
    8.5462   50.5276   34.1254 C   0  0  0  0  0  0  0  0  0  0  0  0
    8.2537   50.6078   35.5143 C   0  0  0  0  0  0  0  0  0  0  0  0
    9.3300   51.5337   33.5300 C   0  0  0  0  0  0  0  0  0  0  0  0
    7.4427   49.6215   36.1794 N   0  0  0  0  0  4  0  0  0  0  0  0
    8.7839   51.6739   36.2647 C   0  0  0  0  0  0  0  0  0  0  0  0
    9.8322   52.5902   34.2906 C   0  0  0  0  0  0  0  0  0  0  0  0
    6.3243   49.1032   35.5694 O   0  0  0  0  0  1  0  0  0  0  0  0
    7.6531   49.3443   37.3784 O   0  0  0  0  0  0  0  0  0  0  0  0
    9.5638   52.6576   35.6558 C   0  0  0  0  0  0  0  0  0  0  0  0
    8.8081   40.1914   34.2083 O   0  0  0  0  0  0  0  0  0  0  0  0
   11.2373   40.7904   33.3686 O   0  0  0  0  0  0  0  0  0  0  0  0
   10.9158   40.6897   31.9957 C   0  0  0  0  0  0  0  0  0  0  0  0
   11.5271   39.3897   31.4372 C   0  0  0  0  0  0  0  0  0  0  0  0
   12.7508   39.0915   32.0837 O   0  0  0  0  0  0  0  0  0  0  0  0
   10.6122   38.1916   31.6452 C   0  0  0  0  0  0  0  0  0  0  0  0
   12.9429   37.6852   32.0295 C   0  0  0  0  0  0  0  0  0  0  0  0
    9.6070   38.0858   30.6603 O   0  0  0  0  0  0  0  0  0  0  0  0
   11.5845   37.0185   31.6879 C   0  0  0  0  0  0  0  0  0  0  0  0
   13.4899   37.2163   33.3250 N   0  0  0  0  0  0  0  0  0  0  0  0
   11.6201   36.3062   30.4693 O   0  0  0  0  0  0  0  0  0  0  0  0
   14.4759   36.3263   33.5738 C   0  0  0  0  0  0  0  0  0  0  0  0
   13.1176   37.6307   34.5699 C   0  0  0  0  0  0  0  0  0  0  0  0
   15.2065   35.6139   32.6746 N   0  0  0  0  0  0  0  0  0  0  0  0
   14.6731   36.2267   34.9191 C   0  0  0  0  0  0  0  0  0  0  0  0
   13.8224   37.0450   35.5792 N   0  0  0  0  0  0  0  0  0  0  0  0
   16.1640   34.7596   33.1551 C   0  0  0  0  0  0  0  0  0  0  0  0
   15.6517   35.3489   35.4136 C   0  0  0  0  0  0  0  0  0  0  0  0
   16.3795   34.6310   34.5046 N   0  0  0  0  0  0  0  0  0  0  0  0
   15.9006   35.1931   36.8094 N   0  0  0  0  0  0  0  0  0  0  0  0
    9.7629   45.0053   32.1624 H   0  0  0  0  0  0  0  0  0  0  0  0
   10.8469   46.9549   33.0472 H   0  0  0  0  0  0  0  0  0  0  0  0
   11.8958   45.6761   32.9264 H   0  0  0  0  0  0  0  0  0  0  0  0
    8.8868   45.8572   35.0163 H   0  0  0  0  0  0  0  0  0  0  0  0
    7.8675   44.8933   33.8963 H   0  0  0  0  0  0  0  0  0  0  0  0
    6.9673   49.4069   33.1838 H   0  0  0  0  0  0  0  0  0  0  0  0
    8.4879   49.4508   32.2410 H   0  0  0  0  0  0  0  0  0  0  0  0
    9.5637   51.4979   32.4730 H   0  0  0  0  0  0  0  0  0  0  0  0
    8.5781   51.7526   37.3248 H   0  0  0  0  0  0  0  0  0  0  0  0
   10.4365   53.3555   33.8206 H   0  0  0  0  0  0  0  0  0  0  0  0
    9.9580   53.4762   36.2442 H   0  0  0  0  0  0  0  0  0  0  0  0
    9.8256   40.7190   31.7584 H   0  0  0  0  0  0  0  0  0  0  0  0
   11.3828   41.5525   31.4742 H   0  0  0  0  0  0  0  0  0  0  0  0
   11.7320   39.5336   30.3518 H   0  0  0  0  0  0  0  0  0  0  0  0
   10.1215   38.2683   32.6412 H   0  0  0  0  0  0  0  0  0  0  0  0
   13.6882   37.4706   31.2319 H   0  0  0  0  0  0  0  0  0  0  0  0
   10.0256   38.1750   29.7656 H   0  0  0  0  0  0  0  0  0  0  0  0
   11.2795   36.3123   32.4915 H   0  0  0  0  0  0  0  0  0  0  0  0
   11.9872   36.9099   29.7714 H   0  0  0  0  0  0  0  0  0  0  0  0
   12.3365   38.3595   34.7453 H   0  0  0  0  0  0  0  0  0  0  0  0
   16.7577   34.1794   32.4622 H   0  0  0  0  0  0  0  0  0  0  0  0
   15.3532   35.7351   37.5143 H   0  0  0  0  0  0  0  0  0  0  0  0
   16.6368   34.5316   37.1418 H   0  0  0  0  0  0  0  0  0  0  0  0
  1  2  2  0
  1  3  1  0
  3  4  1  0
  4  5  1  0
  6  1  1  0
  7  6  1  0
  6  8  1  0
  8  9  1  0
  9 10  1  0
  9 11  2  0
 10 12  1  0
 12 13  1  0
 13 14  2  0
 15 13  1  0
 14 16  1  0
 14 17  1  0
 18 15  2  0
 16 19  1  0
 16 20  2  0
 17 21  2  0
 21 18  1  0
  4 22  2  0
  4 23  1  0
 24 23  1  0
 24 25  1  0
 25 26  1  0
 25 27  1  0
 26 28  1  0
 27 29  1  0
 27 30  1  0
 30 28  1  0
 28 31  1  0
 30 32  1  0
 33 31  1  0
 34 31  1  0
 35 33  2  0
 33 36  1  0
 37 34  2  0
 38 35  1  0
 36 39  2  0
 36 37  1  0
 40 38  2  0
 40 39  1  0
 39 41  1  0
  6 42  1  6
  7 43  1  0
  7 44  1  0
  8 45  1  0
  8 46  1  0
 12 47  1  0
 12 48  1  0
 15 49  1  0
 17 50  1  0
 18 51  1  0
 21 52  1  0
 24 53  1  0
 24 54  1  0
 25 55  1  0
 27 56  1  0
 28 57  1  0
 29 58  1  0
 30 59  1  0
 32 60  1  0
 34 61  1  0
 38 62  1  0
 41 63  1  0
 41 64  1  0
M  CHG  3   5  -1  16   1  19  -1
M  END
>  <EmbedRMS>  (317) 
0.08708153620124488

$$$$

     RDKit          3D

 64 67  0  0  0  0  0  0  0  0999 V2000
   10.2809   43.7764   33.8100 C   0  0  0  0  0  0  0  0  0  0  0  0
   11.4074   43.5921   34.3584 O   0  0  0  0  0  0  0  0  0  0  0  0
    9.3665   42.7320   33.7019 O   0  0  0  0  0  0  0  0  0  0  0  0
    9.8865   41.2348   34.2834 P   0  0  0  0  0  5  0  0  0  0  0  0
   10.3660   41.4692   35.8743 O   0  0  0  0  0  1  0  0  0  0  0  0
    9.9483   45.1141   33.2515 C   0  0  2  0  0  0  0  0  0  0  0  0
   11.0781   46.0206   33.4748 N   0  0  0  0  0  0  0  0  0  0  0  0
    8.6460   45.6572   33.8850 C   0  0  0  0  0  0  0  0  0  0  0  0
    8.1847   46.9249   33.2108 C   0  0  0  0  0  0  0  0  0  0  0  0
    7.2117   46.9489   32.1999 O   0  0  0  0  0  0  0  0  0  0  0  0
    8.7164   48.0149   33.5500 O   0  0  0  0  0  0  0  0  0  0  0  0
    6.3659   45.8591   31.8293 C   0  0  0  0  0  0  0  0  0  0  0  0
    7.1233   44.7806   31.0887 C   0  0  0  0  0  0  0  0  0  0  0  0
    7.9832   45.0662   29.9934 C   0  0  0  0  0  0  0  0  0  0  0  0
    6.9595   43.4455   31.5011 C   0  0  0  0  0  0  0  0  0  0  0  0
    8.1504   46.4003   29.4823 N   0  0  0  0  0  4  0  0  0  0  0  0
    8.7035   44.0157   29.3973 C   0  0  0  0  0  0  0  0  0  0  0  0
    7.6603   42.4150   30.8756 C   0  0  0  0  0  0  0  0  0  0  0  0
    9.3491   46.7751   28.9203 O   0  0  0  0  0  1  0  0  0  0  0  0
    7.1728   47.1693   29.3798 O   0  0  0  0  0  0  0  0  0  0  0  0
    8.5415   42.7006   29.8353 C   0  0  0  0  0  0  0  0  0  0  0  0
    8.8090   40.1918   34.2066 O   0  0  0  0  0  0  0  0  0  0  0  0
   11.2400   40.7917   33.3685 O   0  0  0  0  0  0  0  0  0  0  0  0
   10.9201   40.6887   31.9953 C   0  0  0  0  0  0  0  0  0  0  0  0
   11.5181   39.3804   31.4397 C   0  0  0  0  0  0  0  0  0  0  0  0
   12.7485   39.0861   32.0735 O   0  0  0  0  0  0  0  0  0  0  0  0
   10.6034   38.1895   31.6660 C   0  0  0  0  0  0  0  0  0  0  0  0
   12.9336   37.6796   32.0280 C   0  0  0  0  0  0  0  0  0  0  0  0
    9.6399   38.0786   30.6449 O   0  0  0  0  0  0  0  0  0  0  0  0
   11.5738   37.0156   31.7055 C   0  0  0  0  0  0  0  0  0  0  0  0
   13.4902   37.2176   33.3231 N   0  0  0  0  0  0  0  0  0  0  0  0
   11.6210   36.3377   30.4694 O   0  0  0  0  0  0  0  0  0  0  0  0
   14.4761   36.3272   33.5725 C   0  0  0  0  0  0  0  0  0  0  0  0
   13.1178   37.6316   34.5684 C   0  0  0  0  0  0  0  0  0  0  0  0
   15.2063   35.6138   32.6737 N   0  0  0  0  0  0  0  0  0  0  0  0
   14.6733   36.2277   34.9180 C   0  0  0  0  0  0  0  0  0  0  0  0
   13.8225   37.0459   35.5779 N   0  0  0  0  0  0  0  0  0  0  0  0
   16.1637   34.7594   33.1546 C   0  0  0  0  0  0  0  0  0  0  0  0
   15.6515   35.3494   35.4129 C   0  0  0  0  0  0  0  0  0  0  0  0
   16.3791   34.6311   34.5041 N   0  0  0  0  0  0  0  0  0  0  0  0
   15.9001   35.1935   36.8088 N   0  0  0  0  0  0  0  0  0  0  0  0
    9.8029   44.9859   32.1579 H   0  0  0  0  0  0  0  0  0  0  0  0
   10.9700   46.8595   32.8605 H   0  0  0  0  0  0  0  0  0  0  0  0
   11.0852   46.3487   34.4687 H   0  0  0  0  0  0  0  0  0  0  0  0
    7.8482   44.8898   33.8386 H   0  0  0  0  0  0  0  0  0  0  0  0
    8.8115   45.8623   34.9655 H   0  0  0  0  0  0  0  0  0  0  0  0
    5.8586   45.4640   32.7363 H   0  0  0  0  0  0  0  0  0  0  0  0
    5.5620   46.2414   31.1670 H   0  0  0  0  0  0  0  0  0  0  0  0
    6.2949   43.1993   32.3201 H   0  0  0  0  0  0  0  0  0  0  0  0
    9.3765   44.2123   28.5725 H   0  0  0  0  0  0  0  0  0  0  0  0
    7.5247   41.3932   31.2055 H   0  0  0  0  0  0  0  0  0  0  0  0
    9.0932   41.8998   29.3598 H   0  0  0  0  0  0  0  0  0  0  0  0
    9.8335   40.7290   31.7601 H   0  0  0  0  0  0  0  0  0  0  0  0
   11.3945   41.5453   31.4705 H   0  0  0  0  0  0  0  0  0  0  0  0
   11.6992   39.5054   30.3472 H   0  0  0  0  0  0  0  0  0  0  0  0
   10.1086   38.2637   32.6639 H   0  0  0  0  0  0  0  0  0  0  0  0
   13.6657   37.4538   31.2208 H   0  0  0  0  0  0  0  0  0  0  0  0
    8.9020   38.6995   30.8786 H   0  0  0  0  0  0  0  0  0  0  0  0
   11.2841   36.3064   32.5174 H   0  0  0  0  0  0  0  0  0  0  0  0
   10.8518   35.7101   30.4587 H   0  0  0  0  0  0  0  0  0  0  0  0
   12.3353   38.3587   34.7439 H   0  0  0  0  0  0  0  0  0  0  0  0
   16.7571   34.1788   32.4619 H   0  0  0  0  0  0  0  0  0  0  0  0
   16.6360   34.5317   37.1414 H   0  0  0  0  0  0  0  0  0  0  0  0
   15.3529   35.7359   37.5136 H   0  0  0  0  0  0  0  0  0  0  0  0
  1  2  2  0
  1  3  1  0
  3  4  1  0
  4  5  1  0
  6  1  1  0
  7  6  1  0
  6  8  1  0
  8  9  1  0
  9 10  1  0
  9 11  2  0
 10 12  1  0
 12 13  1  0
 13 14  2  0
 15 13  1  0
 14 16  1  0
 14 17  1  0
 18 15  2  0
 16 19  1  0
 16 20  2  0
 17 21  2  0
 21 18  1  0
  4 22  2  0
  4 23  1  0
 24 23  1  0
 24 25  1  0
 25 26  1  0
 25 27  1  0
 26 28  1  0
 27 29  1  0
 27 30  1  0
 30 28  1  0
 28 31  1  0
 30 32  1  0
 33 31  1  0
 34 31  1  0
 35 33  2  0
 33 36  1  0
 37 34  2  0
 38 35  1  0
 36 39  2  0
 36 37  1  0
 40 38  2  0
 40 39  1  0
 39 41  1  0
  6 42  1  6
  7 43  1  0
  7 44  1  0
  8 45  1  0
  8 46  1  0
 12 47  1  0
 12 48  1  0
 15 49  1  0
 17 50  1  0
 18 51  1  0
 21 52  1  0
 24 53  1  0
 24 54  1  0
 25 55  1  0
 27 56  1  0
 28 57  1  0
 29 58  1  0
 30 59  1  0
 32 60  1  0
 34 61  1  0
 38 62  1  0
 41 63  1  0
 41 64  1  0
M  CHG  3   5  -1  16   1  19  -1
M  END
>  <EmbedRMS>  (318) 
0.08925652668706209

$$$$

     RDKit          3D

 64 67  0  0  0  0  0  0  0  0999 V2000
   10.2846   43.7736   33.8086 C   0  0  0  0  0  0  0  0  0  0  0  0
   11.4105   43.5878   34.3569 O   0  0  0  0  0  0  0  0  0  0  0  0
    9.3661   42.7323   33.7041 O   0  0  0  0  0  0  0  0  0  0  0  0
    9.8851   41.2342   34.2846 P   0  0  0  0  0  5  0  0  0  0  0  0
   10.3665   41.4656   35.8750 O   0  0  0  0  0  1  0  0  0  0  0  0
    9.9591   45.1107   33.2406 C   0  0  2  0  0  0  0  0  0  0  0  0
   11.0671   46.0368   33.4834 N   0  0  0  0  0  0  0  0  0  0  0  0
    8.6429   45.6620   33.8254 C   0  0  0  0  0  0  0  0  0  0  0  0
    8.7438   45.9719   35.2896 C   0  0  0  0  0  0  0  0  0  0  0  0
    8.5058   44.9622   36.2297 O   0  0  0  0  0  0  0  0  0  0  0  0
    9.0584   47.1357   35.6613 O   0  0  0  0  0  0  0  0  0  0  0  0
    8.5167   45.1929   37.6390 C   0  0  0  0  0  0  0  0  0  0  0  0
    9.9155   45.4859   38.1374 C   0  0  0  0  0  0  0  0  0  0  0  0
   10.1792   46.4927   39.1022 C   0  0  0  0  0  0  0  0  0  0  0  0
   10.9870   44.7308   37.6278 C   0  0  0  0  0  0  0  0  0  0  0  0
    9.1178   47.2144   39.7477 N   0  0  0  0  0  4  0  0  0  0  0  0
   11.5112   46.7732   39.4564 C   0  0  0  0  0  0  0  0  0  0  0  0
   12.3008   45.0108   38.0046 C   0  0  0  0  0  0  0  0  0  0  0  0
    8.0341   46.5367   40.2570 O   0  0  0  0  0  1  0  0  0  0  0  0
    9.2701   48.4173   40.0449 O   0  0  0  0  0  0  0  0  0  0  0  0
   12.5636   46.0390   38.9077 C   0  0  0  0  0  0  0  0  0  0  0  0
    8.8076   40.1915   34.2080 O   0  0  0  0  0  0  0  0  0  0  0  0
   11.2366   40.7920   33.3671 O   0  0  0  0  0  0  0  0  0  0  0  0
   10.9131   40.6863   31.9947 C   0  0  0  0  0  0  0  0  0  0  0  0
   11.5167   39.3799   31.4411 C   0  0  0  0  0  0  0  0  0  0  0  0
   12.7486   39.0888   32.0765 O   0  0  0  0  0  0  0  0  0  0  0  0
   10.6050   38.1877   31.6660 C   0  0  0  0  0  0  0  0  0  0  0  0
   12.9411   37.6830   32.0279 C   0  0  0  0  0  0  0  0  0  0  0  0
    9.6358   38.0931   30.6503 O   0  0  0  0  0  0  0  0  0  0  0  0
   11.5827   37.0180   31.6937 C   0  0  0  0  0  0  0  0  0  0  0  0
   13.4909   37.2177   33.3240 N   0  0  0  0  0  0  0  0  0  0  0  0
   11.6141   36.3181   30.4675 O   0  0  0  0  0  0  0  0  0  0  0  0
   14.4762   36.3270   33.5733 C   0  0  0  0  0  0  0  0  0  0  0  0
   13.1179   37.6317   34.5689 C   0  0  0  0  0  0  0  0  0  0  0  0
   15.2067   35.6140   32.6743 N   0  0  0  0  0  0  0  0  0  0  0  0
   14.6731   36.2273   34.9186 C   0  0  0  0  0  0  0  0  0  0  0  0
   13.8223   37.0456   35.5785 N   0  0  0  0  0  0  0  0  0  0  0  0
   16.1639   34.7595   33.1550 C   0  0  0  0  0  0  0  0  0  0  0  0
   15.6515   35.3491   35.4134 C   0  0  0  0  0  0  0  0  0  0  0  0
   16.3792   34.6310   34.5045 N   0  0  0  0  0  0  0  0  0  0  0  0
   15.9002   35.1933   36.8092 N   0  0  0  0  0  0  0  0  0  0  0  0
    9.8226   44.9876   32.1425 H   0  0  0  0  0  0  0  0  0  0  0  0
   10.8083   46.9715   33.0912 H   0  0  0  0  0  0  0  0  0  0  0  0
   11.8931   45.7183   32.9250 H   0  0  0  0  0  0  0  0  0  0  0  0
    8.3603   46.5869   33.2765 H   0  0  0  0  0  0  0  0  0  0  0  0
    7.8208   44.9315   33.6635 H   0  0  0  0  0  0  0  0  0  0  0  0
    8.1409   44.2835   38.1524 H   0  0  0  0  0  0  0  0  0  0  0  0
    7.8159   46.0252   37.8563 H   0  0  0  0  0  0  0  0  0  0  0  0
   10.8048   43.9304   36.9247 H   0  0  0  0  0  0  0  0  0  0  0  0
   11.7328   47.5454   40.1823 H   0  0  0  0  0  0  0  0  0  0  0  0
   13.1167   44.4312   37.5922 H   0  0  0  0  0  0  0  0  0  0  0  0
   13.5837   46.2568   39.1968 H   0  0  0  0  0  0  0  0  0  0  0  0
    9.8229   40.7210   31.7585 H   0  0  0  0  0  0  0  0  0  0  0  0
   11.3846   41.5436   31.4683 H   0  0  0  0  0  0  0  0  0  0  0  0
   11.6993   39.5067   30.3490 H   0  0  0  0  0  0  0  0  0  0  0  0
   10.1119   38.2722   32.6632 H   0  0  0  0  0  0  0  0  0  0  0  0
   13.6816   37.4636   31.2270 H   0  0  0  0  0  0  0  0  0  0  0  0
    9.0036   37.3828   30.9349 H   0  0  0  0  0  0  0  0  0  0  0  0
   11.2846   36.3041   32.4929 H   0  0  0  0  0  0  0  0  0  0  0  0
   11.8849   36.9591   29.7589 H   0  0  0  0  0  0  0  0  0  0  0  0
   12.3364   38.3600   34.7442 H   0  0  0  0  0  0  0  0  0  0  0  0
   16.7574   34.1791   32.4623 H   0  0  0  0  0  0  0  0  0  0  0  0
   16.6363   34.5317   37.1417 H   0  0  0  0  0  0  0  0  0  0  0  0
   15.3529   35.7356   37.5141 H   0  0  0  0  0  0  0  0  0  0  0  0
  1  2  2  0
  1  3  1  0
  3  4  1  0
  4  5  1  0
  6  1  1  0
  7  6  1  0
  6  8  1  0
  8  9  1  0
  9 10  1  0
  9 11  2  0
 10 12  1  0
 12 13  1  0
 13 14  2  0
 15 13  1  0
 14 16  1  0
 14 17  1  0
 18 15  2  0
 16 19  1  0
 16 20  2  0
 17 21  2  0
 21 18  1  0
  4 22  2  0
  4 23  1  0
 24 23  1  0
 24 25  1  0
 25 26  1  0
 25 27  1  0
 26 28  1  0
 27 29  1  0
 27 30  1  0
 30 28  1  0
 28 31  1  0
 30 32  1  0
 33 31  1  0
 34 31  1  0
 35 33  2  0
 33 36  1  0
 37 34  2  0
 38 35  1  0
 36 39  2  0
 36 37  1  0
 40 38  2  0
 40 39  1  0
 39 41  1  0
  6 42  1  6
  7 43  1  0
  7 44  1  0
  8 45  1  0
  8 46  1  0
 12 47  1  0
 12 48  1  0
 15 49  1  0
 17 50  1  0
 18 51  1  0
 21 52  1  0
 24 53  1  0
 24 54  1  0
 25 55  1  0
 27 56  1  0
 28 57  1  0
 29 58  1  0
 30 59  1  0
 32 60  1  0
 34 61  1  0
 38 62  1  0
 41 63  1  0
 41 64  1  0
M  CHG  3   5  -1  16   1  19  -1
M  END
>  <EmbedRMS>  (319) 
0.08798454267179692

$$$$

     RDKit          3D

 64 67  0  0  0  0  0  0  0  0999 V2000
   10.2848   43.7726   33.8068 C   0  0  0  0  0  0  0  0  0  0  0  0
   11.4104   43.5874   34.3562 O   0  0  0  0  0  0  0  0  0  0  0  0
    9.3663   42.7314   33.7014 O   0  0  0  0  0  0  0  0  0  0  0  0
    9.8854   41.2341   34.2836 P   0  0  0  0  0  5  0  0  0  0  0  0
   10.3668   41.4693   35.8739 O   0  0  0  0  0  1  0  0  0  0  0  0
    9.9582   45.1108   33.2439 C   0  0  2  0  0  0  0  0  0  0  0  0
   11.0676   46.0366   33.4846 N   0  0  0  0  0  0  0  0  0  0  0  0
    8.6200   45.6582   33.7902 C   0  0  0  0  0  0  0  0  0  0  0  0
    8.6121   45.8093   35.2826 C   0  0  0  0  0  0  0  0  0  0  0  0
    8.9626   47.0399   35.8521 O   0  0  0  0  0  0  0  0  0  0  0  0
    8.3071   44.8252   36.0106 O   0  0  0  0  0  0  0  0  0  0  0  0
    9.0221   47.2656   37.2613 C   0  0  0  0  0  0  0  0  0  0  0  0
    7.6906   47.6913   37.8541 C   0  0  0  0  0  0  0  0  0  0  0  0
    7.6149   48.1851   39.1876 C   0  0  0  0  0  0  0  0  0  0  0  0
    6.5091   47.6371   37.0831 C   0  0  0  0  0  0  0  0  0  0  0  0
    8.7735   48.2721   40.0386 N   0  0  0  0  0  4  0  0  0  0  0  0
    6.3776   48.6263   39.6896 C   0  0  0  0  0  0  0  0  0  0  0  0
    5.2904   48.0660   37.6097 C   0  0  0  0  0  0  0  0  0  0  0  0
    8.8458   49.2540   41.0000 O   0  0  0  0  0  1  0  0  0  0  0  0
    9.6381   47.3725   40.0368 O   0  0  0  0  0  0  0  0  0  0  0  0
    5.2251   48.5622   38.9082 C   0  0  0  0  0  0  0  0  0  0  0  0
    8.8077   40.1913   34.2086 O   0  0  0  0  0  0  0  0  0  0  0  0
   11.2367   40.7909   33.3659 O   0  0  0  0  0  0  0  0  0  0  0  0
   10.9132   40.6843   31.9932 C   0  0  0  0  0  0  0  0  0  0  0  0
   11.5173   39.3773   31.4396 C   0  0  0  0  0  0  0  0  0  0  0  0
   12.7476   39.0870   32.0758 O   0  0  0  0  0  0  0  0  0  0  0  0
   10.6068   38.1851   31.6657 C   0  0  0  0  0  0  0  0  0  0  0  0
   12.9372   37.6812   32.0291 C   0  0  0  0  0  0  0  0  0  0  0  0
    9.6404   38.0882   30.6475 O   0  0  0  0  0  0  0  0  0  0  0  0
   11.5789   37.0134   31.7045 C   0  0  0  0  0  0  0  0  0  0  0  0
   13.4915   37.2182   33.3239 N   0  0  0  0  0  0  0  0  0  0  0  0
   11.6125   36.3389   30.4673 O   0  0  0  0  0  0  0  0  0  0  0  0
   14.4766   36.3272   33.5730 C   0  0  0  0  0  0  0  0  0  0  0  0
   13.1184   37.6317   34.5690 C   0  0  0  0  0  0  0  0  0  0  0  0
   15.2066   35.6139   32.6740 N   0  0  0  0  0  0  0  0  0  0  0  0
   14.6735   36.2273   34.9184 C   0  0  0  0  0  0  0  0  0  0  0  0
   13.8227   37.0455   35.5785 N   0  0  0  0  0  0  0  0  0  0  0  0
   16.1637   34.7593   33.1548 C   0  0  0  0  0  0  0  0  0  0  0  0
   15.6517   35.3491   35.4132 C   0  0  0  0  0  0  0  0  0  0  0  0
   16.3792   34.6308   34.5043 N   0  0  0  0  0  0  0  0  0  0  0  0
   15.9004   35.1932   36.8090 N   0  0  0  0  0  0  0  0  0  0  0  0
    9.8483   44.9837   32.1446 H   0  0  0  0  0  0  0  0  0  0  0  0
   11.1603   46.2304   34.5083 H   0  0  0  0  0  0  0  0  0  0  0  0
   10.8536   46.9456   33.0134 H   0  0  0  0  0  0  0  0  0  0  0  0
    8.4109   46.6462   33.3264 H   0  0  0  0  0  0  0  0  0  0  0  0
    7.7915   44.9805   33.4887 H   0  0  0  0  0  0  0  0  0  0  0  0
    9.3932   46.3511   37.7716 H   0  0  0  0  0  0  0  0  0  0  0  0
    9.7597   48.0768   37.4370 H   0  0  0  0  0  0  0  0  0  0  0  0
    6.5156   47.2778   36.0643 H   0  0  0  0  0  0  0  0  0  0  0  0
    6.3015   49.0082   40.6998 H   0  0  0  0  0  0  0  0  0  0  0  0
    4.3941   48.0200   37.0045 H   0  0  0  0  0  0  0  0  0  0  0  0
    4.2784   48.8980   39.3116 H   0  0  0  0  0  0  0  0  0  0  0  0
    9.8229   40.7186   31.7574 H   0  0  0  0  0  0  0  0  0  0  0  0
   11.3843   41.5415   31.4664 H   0  0  0  0  0  0  0  0  0  0  0  0
   11.7005   39.5018   30.3472 H   0  0  0  0  0  0  0  0  0  0  0  0
   10.1097   38.2750   32.6606 H   0  0  0  0  0  0  0  0  0  0  0  0
   13.6713   37.4593   31.2228 H   0  0  0  0  0  0  0  0  0  0  0  0
    9.0033   37.3835   30.9350 H   0  0  0  0  0  0  0  0  0  0  0  0
   11.2706   36.3048   32.5088 H   0  0  0  0  0  0  0  0  0  0  0  0
   12.1444   35.5137   30.6141 H   0  0  0  0  0  0  0  0  0  0  0  0
   12.3362   38.3592   34.7445 H   0  0  0  0  0  0  0  0  0  0  0  0
   16.7571   34.1787   32.4620 H   0  0  0  0  0  0  0  0  0  0  0  0
   15.3532   35.7355   37.5139 H   0  0  0  0  0  0  0  0  0  0  0  0
   16.6363   34.5314   37.1415 H   0  0  0  0  0  0  0  0  0  0  0  0
  1  2  2  0
  1  3  1  0
  3  4  1  0
  4  5  1  0
  6  1  1  0
  7  6  1  0
  6  8  1  0
  8  9  1  0
  9 10  1  0
  9 11  2  0
 10 12  1  0
 12 13  1  0
 13 14  2  0
 15 13  1  0
 14 16  1  0
 14 17  1  0
 18 15  2  0
 16 19  1  0
 16 20  2  0
 17 21  2  0
 21 18  1  0
  4 22  2  0
  4 23  1  0
 24 23  1  0
 24 25  1  0
 25 26  1  0
 25 27  1  0
 26 28  1  0
 27 29  1  0
 27 30  1  0
 30 28  1  0
 28 31  1  0
 30 32  1  0
 33 31  1  0
 34 31  1  0
 35 33  2  0
 33 36  1  0
 37 34  2  0
 38 35  1  0
 36 39  2  0
 36 37  1  0
 40 38  2  0
 40 39  1  0
 39 41  1  0
  6 42  1  6
  7 43  1  0
  7 44  1  0
  8 45  1  0
  8 46  1  0
 12 47  1  0
 12 48  1  0
 15 49  1  0
 17 50  1  0
 18 51  1  0
 21 52  1  0
 24 53  1  0
 24 54  1  0
 25 55  1  0
 27 56  1  0
 28 57  1  0
 29 58  1  0
 30 59  1  0
 32 60  1  0
 34 61  1  0
 38 62  1  0
 41 63  1  0
 41 64  1  0
M  CHG  3   5  -1  16   1  19  -1
M  END
>  <EmbedRMS>  (320) 
0.08870467000382667

$$$$

     RDKit          3D

 64 67  0  0  0  0  0  0  0  0999 V2000
   10.2854   43.7722   33.8047 C   0  0  0  0  0  0  0  0  0  0  0  0
   11.4087   43.5889   34.3594 O   0  0  0  0  0  0  0  0  0  0  0  0
    9.3661   42.7312   33.7027 O   0  0  0  0  0  0  0  0  0  0  0  0
    9.8848   41.2343   34.2868 P   0  0  0  0  0  5  0  0  0  0  0  0
   10.3695   41.4695   35.8755 O   0  0  0  0  0  1  0  0  0  0  0  0
    9.9692   45.1044   33.2207 C   0  0  2  0  0  0  0  0  0  0  0  0
   11.0599   46.0407   33.4997 N   0  0  0  0  0  0  0  0  0  0  0  0
    8.6030   45.6488   33.6949 C   0  0  0  0  0  0  0  0  0  0  0  0
    8.5143   45.8031   35.1846 C   0  0  0  0  0  0  0  0  0  0  0  0
    8.4715   44.6622   35.9885 O   0  0  0  0  0  0  0  0  0  0  0  0
    8.4884   46.9541   35.6990 O   0  0  0  0  0  0  0  0  0  0  0  0
    8.3298   44.7164   37.4019 C   0  0  0  0  0  0  0  0  0  0  0  0
    8.4417   43.3244   37.9760 C   0  0  0  0  0  0  0  0  0  0  0  0
    7.6058   42.2519   37.5504 C   0  0  0  0  0  0  0  0  0  0  0  0
    9.4305   43.0786   38.9485 C   0  0  0  0  0  0  0  0  0  0  0  0
    6.5596   42.4264   36.5717 N   0  0  0  0  0  4  0  0  0  0  0  0
    7.8062   40.9709   38.0994 C   0  0  0  0  0  0  0  0  0  0  0  0
    9.5990   41.8034   39.4880 C   0  0  0  0  0  0  0  0  0  0  0  0
    6.1317   41.3510   35.8241 O   0  0  0  0  0  1  0  0  0  0  0  0
    5.9209   43.4956   36.4947 O   0  0  0  0  0  0  0  0  0  0  0  0
    8.7882   40.7520   39.0646 C   0  0  0  0  0  0  0  0  0  0  0  0
    8.8072   40.1915   34.2129 O   0  0  0  0  0  0  0  0  0  0  0  0
   11.2359   40.7886   33.3702 O   0  0  0  0  0  0  0  0  0  0  0  0
   10.9146   40.6886   31.9971 C   0  0  0  0  0  0  0  0  0  0  0  0
   11.5246   39.3877   31.4369 C   0  0  0  0  0  0  0  0  0  0  0  0
   12.7481   39.0880   32.0803 O   0  0  0  0  0  0  0  0  0  0  0  0
   10.6096   38.1914   31.6463 C   0  0  0  0  0  0  0  0  0  0  0  0
   12.9341   37.6808   32.0288 C   0  0  0  0  0  0  0  0  0  0  0  0
    9.6130   38.0885   30.6532 O   0  0  0  0  0  0  0  0  0  0  0  0
   11.5759   37.0137   31.7021 C   0  0  0  0  0  0  0  0  0  0  0  0
   13.4899   37.2163   33.3232 N   0  0  0  0  0  0  0  0  0  0  0  0
   11.6313   36.3229   30.4739 O   0  0  0  0  0  0  0  0  0  0  0  0
   14.4764   36.3268   33.5726 C   0  0  0  0  0  0  0  0  0  0  0  0
   13.1177   37.6307   34.5684 C   0  0  0  0  0  0  0  0  0  0  0  0
   15.2068   35.6137   32.6738 N   0  0  0  0  0  0  0  0  0  0  0  0
   14.6738   36.2275   34.9181 C   0  0  0  0  0  0  0  0  0  0  0  0
   13.8229   37.0457   35.5780 N   0  0  0  0  0  0  0  0  0  0  0  0
   16.1643   34.7595   33.1546 C   0  0  0  0  0  0  0  0  0  0  0  0
   15.6521   35.3491   35.4131 C   0  0  0  0  0  0  0  0  0  0  0  0
   16.3798   34.6310   34.5041 N   0  0  0  0  0  0  0  0  0  0  0  0
   15.9003   35.1928   36.8090 N   0  0  0  0  0  0  0  0  0  0  0  0
    9.9110   44.9660   32.1186 H   0  0  0  0  0  0  0  0  0  0  0  0
   11.0909   46.2587   34.5233 H   0  0  0  0  0  0  0  0  0  0  0  0
   10.8667   46.9378   32.9970 H   0  0  0  0  0  0  0  0  0  0  0  0
    7.7966   44.9591   33.3631 H   0  0  0  0  0  0  0  0  0  0  0  0
    8.4099   46.6287   33.2058 H   0  0  0  0  0  0  0  0  0  0  0  0
    9.1199   45.3788   37.8182 H   0  0  0  0  0  0  0  0  0  0  0  0
    7.3498   45.1625   37.6726 H   0  0  0  0  0  0  0  0  0  0  0  0
   10.0791   43.8763   39.2903 H   0  0  0  0  0  0  0  0  0  0  0  0
    7.1791   40.1382   37.8006 H   0  0  0  0  0  0  0  0  0  0  0  0
   10.3506   41.6309   40.2454 H   0  0  0  0  0  0  0  0  0  0  0  0
    8.9169   39.7645   39.4886 H   0  0  0  0  0  0  0  0  0  0  0  0
    9.8244   40.7191   31.7605 H   0  0  0  0  0  0  0  0  0  0  0  0
   11.3827   41.5512   31.4766 H   0  0  0  0  0  0  0  0  0  0  0  0
   11.7268   39.5294   30.3506 H   0  0  0  0  0  0  0  0  0  0  0  0
   10.1110   38.2734   32.6378 H   0  0  0  0  0  0  0  0  0  0  0  0
   13.6661   37.4588   31.2207 H   0  0  0  0  0  0  0  0  0  0  0  0
   10.0526   38.1109   29.7635 H   0  0  0  0  0  0  0  0  0  0  0  0
   11.2784   36.3142   32.5194 H   0  0  0  0  0  0  0  0  0  0  0  0
   10.8613   35.6962   30.4652 H   0  0  0  0  0  0  0  0  0  0  0  0
   12.3360   38.3590   34.7434 H   0  0  0  0  0  0  0  0  0  0  0  0
   16.7586   34.1801   32.4618 H   0  0  0  0  0  0  0  0  0  0  0  0
   16.6363   34.5312   37.1417 H   0  0  0  0  0  0  0  0  0  0  0  0
   15.3530   35.7354   37.5136 H   0  0  0  0  0  0  0  0  0  0  0  0
  1  2  2  0
  1  3  1  0
  3  4  1  0
  4  5  1  0
  6  1  1  0
  7  6  1  0
  6  8  1  0
  8  9  1  0
  9 10  1  0
  9 11  2  0
 10 12  1  0
 12 13  1  0
 13 14  2  0
 15 13  1  0
 14 16  1  0
 14 17  1  0
 18 15  2  0
 16 19  1  0
 16 20  2  0
 17 21  2  0
 21 18  1  0
  4 22  2  0
  4 23  1  0
 24 23  1  0
 24 25  1  0
 25 26  1  0
 25 27  1  0
 26 28  1  0
 27 29  1  0
 27 30  1  0
 30 28  1  0
 28 31  1  0
 30 32  1  0
 33 31  1  0
 34 31  1  0
 35 33  2  0
 33 36  1  0
 37 34  2  0
 38 35  1  0
 36 39  2  0
 36 37  1  0
 40 38  2  0
 40 39  1  0
 39 41  1  0
  6 42  1  6
  7 43  1  0
  7 44  1  0
  8 45  1  0
  8 46  1  0
 12 47  1  0
 12 48  1  0
 15 49  1  0
 17 50  1  0
 18 51  1  0
 21 52  1  0
 24 53  1  0
 24 54  1  0
 25 55  1  0
 27 56  1  0
 28 57  1  0
 29 58  1  0
 30 59  1  0
 32 60  1  0
 34 61  1  0
 38 62  1  0
 41 63  1  0
 41 64  1  0
M  CHG  3   5  -1  16   1  19  -1
M  END
>  <EmbedRMS>  (321) 
0.08807339948113835

$$$$

     RDKit          3D

 64 67  0  0  0  0  0  0  0  0999 V2000
   10.2796   43.7744   33.8059 C   0  0  0  0  0  0  0  0  0  0  0  0
   11.4035   43.5907   34.3604 O   0  0  0  0  0  0  0  0  0  0  0  0
    9.3624   42.7312   33.7033 O   0  0  0  0  0  0  0  0  0  0  0  0
    9.8881   41.2351   34.2845 P   0  0  0  0  0  5  0  0  0  0  0  0
   10.3704   41.4708   35.8742 O   0  0  0  0  0  1  0  0  0  0  0  0
    9.9734   45.1029   33.2064 C   0  0  2  0  0  0  0  0  0  0  0  0
   11.0619   46.0323   33.5129 N   0  0  0  0  0  0  0  0  0  0  0  0
    8.6171   45.6582   33.6992 C   0  0  0  0  0  0  0  0  0  0  0  0
    7.4548   45.0207   32.9965 C   0  0  0  0  0  0  0  0  0  0  0  0
    6.4148   44.4562   33.7451 O   0  0  0  0  0  0  0  0  0  0  0  0
    7.3940   45.0522   31.7362 O   0  0  0  0  0  0  0  0  0  0  0  0
    5.2530   43.8821   33.1482 C   0  0  0  0  0  0  0  0  0  0  0  0
    5.5524   42.4908   32.6422 C   0  0  0  0  0  0  0  0  0  0  0  0
    5.7053   41.3872   33.5208 C   0  0  0  0  0  0  0  0  0  0  0  0
    5.7797   42.3070   31.2653 C   0  0  0  0  0  0  0  0  0  0  0  0
    5.5139   41.5185   34.9386 N   0  0  0  0  0  4  0  0  0  0  0  0
    6.0669   40.1344   32.9949 C   0  0  0  0  0  0  0  0  0  0  0  0
    6.1452   41.0567   30.7633 C   0  0  0  0  0  0  0  0  0  0  0  0
    4.3344   42.0247   35.4328 O   0  0  0  0  0  1  0  0  0  0  0  0
    6.2999   40.9523   35.7259 O   0  0  0  0  0  0  0  0  0  0  0  0
    6.2894   39.9723   31.6267 C   0  0  0  0  0  0  0  0  0  0  0  0
    8.8191   40.1854   34.2127 O   0  0  0  0  0  0  0  0  0  0  0  0
   11.2387   40.7954   33.3644 O   0  0  0  0  0  0  0  0  0  0  0  0
   10.9115   40.6855   31.9928 C   0  0  0  0  0  0  0  0  0  0  0  0
   11.5152   39.3779   31.4398 C   0  0  0  0  0  0  0  0  0  0  0  0
   12.7460   39.0861   32.0745 O   0  0  0  0  0  0  0  0  0  0  0  0
   10.6034   38.1873   31.6673 C   0  0  0  0  0  0  0  0  0  0  0  0
   12.9336   37.6796   32.0283 C   0  0  0  0  0  0  0  0  0  0  0  0
    9.6367   38.0927   30.6489 O   0  0  0  0  0  0  0  0  0  0  0  0
   11.5750   37.0135   31.7060 C   0  0  0  0  0  0  0  0  0  0  0  0
   13.4906   37.2179   33.3232 N   0  0  0  0  0  0  0  0  0  0  0  0
   11.6223   36.3375   30.4688 O   0  0  0  0  0  0  0  0  0  0  0  0
   14.4763   36.3273   33.5726 C   0  0  0  0  0  0  0  0  0  0  0  0
   13.1179   37.6316   34.5684 C   0  0  0  0  0  0  0  0  0  0  0  0
   15.2063   35.6138   32.6738 N   0  0  0  0  0  0  0  0  0  0  0  0
   14.6734   36.2278   34.9181 C   0  0  0  0  0  0  0  0  0  0  0  0
   13.8225   37.0459   35.5780 N   0  0  0  0  0  0  0  0  0  0  0  0
   16.1634   34.7592   33.1546 C   0  0  0  0  0  0  0  0  0  0  0  0
   15.6516   35.3494   35.4130 C   0  0  0  0  0  0  0  0  0  0  0  0
   16.3790   34.6310   34.5042 N   0  0  0  0  0  0  0  0  0  0  0  0
   15.9002   35.1935   36.8089 N   0  0  0  0  0  0  0  0  0  0  0  0
    9.9456   44.9703   32.1020 H   0  0  0  0  0  0  0  0  0  0  0  0
   11.0123   46.3050   34.5226 H   0  0  0  0  0  0  0  0  0  0  0  0
   10.9266   46.9036   32.9498 H   0  0  0  0  0  0  0  0  0  0  0  0
    8.5665   46.7504   33.5006 H   0  0  0  0  0  0  0  0  0  0  0  0
    8.5205   45.5159   34.7981 H   0  0  0  0  0  0  0  0  0  0  0  0
    4.4361   43.8604   33.8931 H   0  0  0  0  0  0  0  0  0  0  0  0
    4.8838   44.5383   32.3290 H   0  0  0  0  0  0  0  0  0  0  0  0
    5.6859   43.1378   30.5766 H   0  0  0  0  0  0  0  0  0  0  0  0
    6.1781   39.2797   33.6508 H   0  0  0  0  0  0  0  0  0  0  0  0
    6.3216   40.9300   29.7025 H   0  0  0  0  0  0  0  0  0  0  0  0
    6.5750   39.0040   31.2358 H   0  0  0  0  0  0  0  0  0  0  0  0
    9.8202   40.7189   31.7594 H   0  0  0  0  0  0  0  0  0  0  0  0
   11.3803   41.5420   31.4629 H   0  0  0  0  0  0  0  0  0  0  0  0
   11.6974   39.5020   30.3472 H   0  0  0  0  0  0  0  0  0  0  0  0
   10.1082   38.2779   32.6634 H   0  0  0  0  0  0  0  0  0  0  0  0
   13.6657   37.4551   31.2208 H   0  0  0  0  0  0  0  0  0  0  0  0
    8.9684   37.4278   30.9595 H   0  0  0  0  0  0  0  0  0  0  0  0
   11.2854   36.3047   32.5181 H   0  0  0  0  0  0  0  0  0  0  0  0
   10.8652   35.6953   30.4648 H   0  0  0  0  0  0  0  0  0  0  0  0
   12.3350   38.3584   34.7437 H   0  0  0  0  0  0  0  0  0  0  0  0
   16.7565   34.1783   32.4619 H   0  0  0  0  0  0  0  0  0  0  0  0
   16.6360   34.5315   37.1415 H   0  0  0  0  0  0  0  0  0  0  0  0
   15.3529   35.7357   37.5138 H   0  0  0  0  0  0  0  0  0  0  0  0
  1  2  2  0
  1  3  1  0
  3  4  1  0
  4  5  1  0
  6  1  1  0
  7  6  1  0
  6  8  1  0
  8  9  1  0
  9 10  1  0
  9 11  2  0
 10 12  1  0
 12 13  1  0
 13 14  2  0
 15 13  1  0
 14 16  1  0
 14 17  1  0
 18 15  2  0
 16 19  1  0
 16 20  2  0
 17 21  2  0
 21 18  1  0
  4 22  2  0
  4 23  1  0
 24 23  1  0
 24 25  1  0
 25 26  1  0
 25 27  1  0
 26 28  1  0
 27 29  1  0
 27 30  1  0
 30 28  1  0
 28 31  1  0
 30 32  1  0
 33 31  1  0
 34 31  1  0
 35 33  2  0
 33 36  1  0
 37 34  2  0
 38 35  1  0
 36 39  2  0
 36 37  1  0
 40 38  2  0
 40 39  1  0
 39 41  1  0
  6 42  1  6
  7 43  1  0
  7 44  1  0
  8 45  1  0
  8 46  1  0
 12 47  1  0
 12 48  1  0
 15 49  1  0
 17 50  1  0
 18 51  1  0
 21 52  1  0
 24 53  1  0
 24 54  1  0
 25 55  1  0
 27 56  1  0
 28 57  1  0
 29 58  1  0
 30 59  1  0
 32 60  1  0
 34 61  1  0
 38 62  1  0
 41 63  1  0
 41 64  1  0
M  CHG  3   5  -1  16   1  19  -1
M  END
>  <EmbedRMS>  (322) 
0.08799533642924678

$$$$

     RDKit          3D

 64 67  0  0  0  0  0  0  0  0999 V2000
   10.2862   43.7711   33.8103 C   0  0  0  0  0  0  0  0  0  0  0  0
   11.4100   43.5817   34.3619 O   0  0  0  0  0  0  0  0  0  0  0  0
    9.3666   42.7311   33.7024 O   0  0  0  0  0  0  0  0  0  0  0  0
    9.8842   41.2332   34.2847 P   0  0  0  0  0  5  0  0  0  0  0  0
   10.3652   41.4677   35.8752 O   0  0  0  0  0  1  0  0  0  0  0  0
    9.9615   45.1119   33.2460 C   0  0  2  0  0  0  0  0  0  0  0  0
   11.0651   46.0483   33.4751 N   0  0  0  0  0  0  0  0  0  0  0  0
    8.6642   45.6572   33.8658 C   0  0  0  0  0  0  0  0  0  0  0  0
    8.2723   46.9564   33.2335 C   0  0  0  0  0  0  0  0  0  0  0  0
    7.7337   46.9550   31.9442 O   0  0  0  0  0  0  0  0  0  0  0  0
    8.4603   48.0394   33.8523 O   0  0  0  0  0  0  0  0  0  0  0  0
    7.3723   48.1508   31.2579 C   0  0  0  0  0  0  0  0  0  0  0  0
    6.8742   47.8421   29.8643 C   0  0  0  0  0  0  0  0  0  0  0  0
    5.9333   48.6804   29.2093 C   0  0  0  0  0  0  0  0  0  0  0  0
    7.3755   46.7151   29.1827 C   0  0  0  0  0  0  0  0  0  0  0  0
    5.4668   49.9026   29.8073 N   0  0  0  0  0  4  0  0  0  0  0  0
    5.4586   48.3174   27.9357 C   0  0  0  0  0  0  0  0  0  0  0  0
    6.9053   46.3833   27.9113 C   0  0  0  0  0  0  0  0  0  0  0  0
    6.3477   50.7432   30.4480 O   0  0  0  0  0  1  0  0  0  0  0  0
    4.3055   50.3043   29.5865 O   0  0  0  0  0  0  0  0  0  0  0  0
    5.9401   47.1759   27.2942 C   0  0  0  0  0  0  0  0  0  0  0  0
    8.8068   40.1904   34.2082 O   0  0  0  0  0  0  0  0  0  0  0  0
   11.2363   40.7903   33.3689 O   0  0  0  0  0  0  0  0  0  0  0  0
   10.9152   40.6898   31.9959 C   0  0  0  0  0  0  0  0  0  0  0  0
   11.5268   39.3898   31.4373 C   0  0  0  0  0  0  0  0  0  0  0  0
   12.7506   39.0917   32.0839 O   0  0  0  0  0  0  0  0  0  0  0  0
   10.6121   38.1915   31.6452 C   0  0  0  0  0  0  0  0  0  0  0  0
   12.9429   37.6853   32.0295 C   0  0  0  0  0  0  0  0  0  0  0  0
    9.6069   38.0857   30.6602 O   0  0  0  0  0  0  0  0  0  0  0  0
   11.5845   37.0186   31.6879 C   0  0  0  0  0  0  0  0  0  0  0  0
   13.4899   37.2164   33.3250 N   0  0  0  0  0  0  0  0  0  0  0  0
   11.6201   36.3063   30.4693 O   0  0  0  0  0  0  0  0  0  0  0  0
   14.4759   36.3263   33.5738 C   0  0  0  0  0  0  0  0  0  0  0  0
   13.1176   37.6308   34.5699 C   0  0  0  0  0  0  0  0  0  0  0  0
   15.2065   35.6139   32.6746 N   0  0  0  0  0  0  0  0  0  0  0  0
   14.6731   36.2267   34.9190 C   0  0  0  0  0  0  0  0  0  0  0  0
   13.8224   37.0450   35.5792 N   0  0  0  0  0  0  0  0  0  0  0  0
   16.1640   34.7596   33.1551 C   0  0  0  0  0  0  0  0  0  0  0  0
   15.6517   35.3489   35.4136 C   0  0  0  0  0  0  0  0  0  0  0  0
   16.3795   34.6310   34.5045 N   0  0  0  0  0  0  0  0  0  0  0  0
   15.9006   35.1931   36.8094 N   0  0  0  0  0  0  0  0  0  0  0  0
    9.8141   44.9928   32.1493 H   0  0  0  0  0  0  0  0  0  0  0  0
   11.2731   46.1189   34.4988 H   0  0  0  0  0  0  0  0  0  0  0  0
   11.9225   45.7029   32.9844 H   0  0  0  0  0  0  0  0  0  0  0  0
    7.8360   44.9327   33.7070 H   0  0  0  0  0  0  0  0  0  0  0  0
    8.7916   45.7926   34.9629 H   0  0  0  0  0  0  0  0  0  0  0  0
    8.2566   48.8195   31.1823 H   0  0  0  0  0  0  0  0  0  0  0  0
    6.5778   48.6561   31.8473 H   0  0  0  0  0  0  0  0  0  0  0  0
    8.1263   46.0809   29.6374 H   0  0  0  0  0  0  0  0  0  0  0  0
    4.7324   48.9374   27.4251 H   0  0  0  0  0  0  0  0  0  0  0  0
    7.2893   45.5073   27.4045 H   0  0  0  0  0  0  0  0  0  0  0  0
    5.5753   46.9145   26.3092 H   0  0  0  0  0  0  0  0  0  0  0  0
   11.3822   41.5527   31.4746 H   0  0  0  0  0  0  0  0  0  0  0  0
    9.8251   40.7191   31.7585 H   0  0  0  0  0  0  0  0  0  0  0  0
   11.7317   39.5338   30.3520 H   0  0  0  0  0  0  0  0  0  0  0  0
   10.1214   38.2682   32.6412 H   0  0  0  0  0  0  0  0  0  0  0  0
   13.6882   37.4709   31.2319 H   0  0  0  0  0  0  0  0  0  0  0  0
   10.0256   38.1750   29.7656 H   0  0  0  0  0  0  0  0  0  0  0  0
   11.2796   36.3123   32.4915 H   0  0  0  0  0  0  0  0  0  0  0  0
   11.9872   36.9099   29.7714 H   0  0  0  0  0  0  0  0  0  0  0  0
   12.3365   38.3596   34.7453 H   0  0  0  0  0  0  0  0  0  0  0  0
   16.7576   34.1794   32.4622 H   0  0  0  0  0  0  0  0  0  0  0  0
   16.6368   34.5316   37.1418 H   0  0  0  0  0  0  0  0  0  0  0  0
   15.3532   35.7351   37.5143 H   0  0  0  0  0  0  0  0  0  0  0  0
  1  2  2  0
  1  3  1  0
  3  4  1  0
  4  5  1  0
  6  1  1  0
  7  6  1  0
  6  8  1  0
  8  9  1  0
  9 10  1  0
  9 11  2  0
 10 12  1  0
 12 13  1  0
 13 14  2  0
 15 13  1  0
 14 16  1  0
 14 17  1  0
 18 15  2  0
 16 19  1  0
 16 20  2  0
 17 21  2  0
 21 18  1  0
  4 22  2  0
  4 23  1  0
 24 23  1  0
 24 25  1  0
 25 26  1  0
 25 27  1  0
 26 28  1  0
 27 29  1  0
 27 30  1  0
 30 28  1  0
 28 31  1  0
 30 32  1  0
 33 31  1  0
 34 31  1  0
 35 33  2  0
 33 36  1  0
 37 34  2  0
 38 35  1  0
 36 39  2  0
 36 37  1  0
 40 38  2  0
 40 39  1  0
 39 41  1  0
  6 42  1  6
  7 43  1  0
  7 44  1  0
  8 45  1  0
  8 46  1  0
 12 47  1  0
 12 48  1  0
 15 49  1  0
 17 50  1  0
 18 51  1  0
 21 52  1  0
 24 53  1  0
 24 54  1  0
 25 55  1  0
 27 56  1  0
 28 57  1  0
 29 58  1  0
 30 59  1  0
 32 60  1  0
 34 61  1  0
 38 62  1  0
 41 63  1  0
 41 64  1  0
M  CHG  3   5  -1  16   1  19  -1
M  END
>  <EmbedRMS>  (323) 
0.08750936928558811

$$$$

     RDKit          3D

 64 67  0  0  0  0  0  0  0  0999 V2000
   10.2891   43.7675   33.8054 C   0  0  0  0  0  0  0  0  0  0  0  0
   11.4122   43.5785   34.3585 O   0  0  0  0  0  0  0  0  0  0  0  0
    9.3673   42.7299   33.7001 O   0  0  0  0  0  0  0  0  0  0  0  0
    9.8844   41.2326   34.2842 P   0  0  0  0  0  5  0  0  0  0  0  0
   10.3641   41.4682   35.8746 O   0  0  0  0  0  1  0  0  0  0  0  0
    9.9613   45.1137   33.2517 C   0  0  2  0  0  0  0  0  0  0  0  0
   11.0628   46.0529   33.4758 N   0  0  0  0  0  0  0  0  0  0  0  0
    8.6455   45.6739   33.8297 C   0  0  0  0  0  0  0  0  0  0  0  0
    8.6110   45.6462   35.3298 C   0  0  0  0  0  0  0  0  0  0  0  0
    9.2676   46.6439   36.0584 O   0  0  0  0  0  0  0  0  0  0  0  0
    8.0254   44.6985   35.9213 O   0  0  0  0  0  0  0  0  0  0  0  0
    9.4804   46.5633   37.4662 C   0  0  0  0  0  0  0  0  0  0  0  0
   10.5252   45.5137   37.7693 C   0  0  0  0  0  0  0  0  0  0  0  0
   10.2094   44.2628   38.3594 C   0  0  0  0  0  0  0  0  0  0  0  0
   11.8412   45.7526   37.3353 C   0  0  0  0  0  0  0  0  0  0  0  0
    8.8975   43.9772   38.8644 N   0  0  0  0  0  4  0  0  0  0  0  0
   11.2087   43.2802   38.4666 C   0  0  0  0  0  0  0  0  0  0  0  0
   12.8238   44.7698   37.4619 C   0  0  0  0  0  0  0  0  0  0  0  0
    8.3297   44.8088   39.8016 O   0  0  0  0  0  1  0  0  0  0  0  0
    8.3837   42.8577   38.6613 O   0  0  0  0  0  0  0  0  0  0  0  0
   12.5063   43.5328   38.0198 C   0  0  0  0  0  0  0  0  0  0  0  0
    8.8068   40.1902   34.2078 O   0  0  0  0  0  0  0  0  0  0  0  0
   11.2376   40.7889   33.3695 O   0  0  0  0  0  0  0  0  0  0  0  0
   10.9195   40.6894   31.9954 C   0  0  0  0  0  0  0  0  0  0  0  0
   11.5171   39.3802   31.4399 C   0  0  0  0  0  0  0  0  0  0  0  0
   12.7479   39.0862   32.0733 O   0  0  0  0  0  0  0  0  0  0  0  0
   10.6031   38.1891   31.6667 C   0  0  0  0  0  0  0  0  0  0  0  0
   12.9335   37.6797   32.0280 C   0  0  0  0  0  0  0  0  0  0  0  0
    9.6397   38.0778   30.6457 O   0  0  0  0  0  0  0  0  0  0  0  0
   11.5739   37.0154   31.7058 C   0  0  0  0  0  0  0  0  0  0  0  0
   13.4903   37.2179   33.3231 N   0  0  0  0  0  0  0  0  0  0  0  0
   11.6211   36.3377   30.4695 O   0  0  0  0  0  0  0  0  0  0  0  0
   14.4761   36.3273   33.5725 C   0  0  0  0  0  0  0  0  0  0  0  0
   13.1179   37.6318   34.5684 C   0  0  0  0  0  0  0  0  0  0  0  0
   15.2063   35.6139   32.6737 N   0  0  0  0  0  0  0  0  0  0  0  0
   14.6733   36.2278   34.9180 C   0  0  0  0  0  0  0  0  0  0  0  0
   13.8226   37.0460   35.5780 N   0  0  0  0  0  0  0  0  0  0  0  0
   16.1636   34.7595   33.1546 C   0  0  0  0  0  0  0  0  0  0  0  0
   15.6515   35.3494   35.4129 C   0  0  0  0  0  0  0  0  0  0  0  0
   16.3791   34.6311   34.5041 N   0  0  0  0  0  0  0  0  0  0  0  0
   15.9001   35.1936   36.8088 N   0  0  0  0  0  0  0  0  0  0  0  0
    9.8225   45.0010   32.1539 H   0  0  0  0  0  0  0  0  0  0  0  0
   11.9070   45.7242   32.9518 H   0  0  0  0  0  0  0  0  0  0  0  0
   11.3090   46.0939   34.4908 H   0  0  0  0  0  0  0  0  0  0  0  0
    7.7911   45.0817   33.4338 H   0  0  0  0  0  0  0  0  0  0  0  0
    8.5047   46.7203   33.4830 H   0  0  0  0  0  0  0  0  0  0  0  0
    9.8481   47.5482   37.8242 H   0  0  0  0  0  0  0  0  0  0  0  0
    8.5135   46.3812   37.9731 H   0  0  0  0  0  0  0  0  0  0  0  0
   12.1008   46.6979   36.8743 H   0  0  0  0  0  0  0  0  0  0  0  0
   10.9828   42.3192   38.9116 H   0  0  0  0  0  0  0  0  0  0  0  0
   13.8305   44.9639   37.1151 H   0  0  0  0  0  0  0  0  0  0  0  0
   13.2680   42.7693   38.1110 H   0  0  0  0  0  0  0  0  0  0  0  0
   11.4018   41.5438   31.4744 H   0  0  0  0  0  0  0  0  0  0  0  0
    9.8318   40.7400   31.7547 H   0  0  0  0  0  0  0  0  0  0  0  0
   11.6981   39.5046   30.3472 H   0  0  0  0  0  0  0  0  0  0  0  0
   10.1089   38.2631   32.6650 H   0  0  0  0  0  0  0  0  0  0  0  0
   13.6656   37.4541   31.2208 H   0  0  0  0  0  0  0  0  0  0  0  0
    8.8966   38.6902   30.8851 H   0  0  0  0  0  0  0  0  0  0  0  0
   11.2846   36.3060   32.5176 H   0  0  0  0  0  0  0  0  0  0  0  0
   10.8523   35.7095   30.4590 H   0  0  0  0  0  0  0  0  0  0  0  0
   12.3355   38.3591   34.7440 H   0  0  0  0  0  0  0  0  0  0  0  0
   16.7570   34.1788   32.4619 H   0  0  0  0  0  0  0  0  0  0  0  0
   15.3530   35.7359   37.5136 H   0  0  0  0  0  0  0  0  0  0  0  0
   16.6360   34.5317   37.1413 H   0  0  0  0  0  0  0  0  0  0  0  0
  1  2  2  0
  1  3  1  0
  3  4  1  0
  4  5  1  0
  6  1  1  0
  7  6  1  0
  6  8  1  0
  8  9  1  0
  9 10  1  0
  9 11  2  0
 10 12  1  0
 12 13  1  0
 13 14  2  0
 15 13  1  0
 14 16  1  0
 14 17  1  0
 18 15  2  0
 16 19  1  0
 16 20  2  0
 17 21  2  0
 21 18  1  0
  4 22  2  0
  4 23  1  0
 24 23  1  0
 24 25  1  0
 25 26  1  0
 25 27  1  0
 26 28  1  0
 27 29  1  0
 27 30  1  0
 30 28  1  0
 28 31  1  0
 30 32  1  0
 33 31  1  0
 34 31  1  0
 35 33  2  0
 33 36  1  0
 37 34  2  0
 38 35  1  0
 36 39  2  0
 36 37  1  0
 40 38  2  0
 40 39  1  0
 39 41  1  0
  6 42  1  6
  7 43  1  0
  7 44  1  0
  8 45  1  0
  8 46  1  0
 12 47  1  0
 12 48  1  0
 15 49  1  0
 17 50  1  0
 18 51  1  0
 21 52  1  0
 24 53  1  0
 24 54  1  0
 25 55  1  0
 27 56  1  0
 28 57  1  0
 29 58  1  0
 30 59  1  0
 32 60  1  0
 34 61  1  0
 38 62  1  0
 41 63  1  0
 41 64  1  0
M  CHG  3   5  -1  16   1  19  -1
M  END
>  <EmbedRMS>  (324) 
0.09006911075457961

$$$$

     RDKit          3D

 64 67  0  0  0  0  0  0  0  0999 V2000
   10.2811   43.7760   33.8097 C   0  0  0  0  0  0  0  0  0  0  0  0
   11.4071   43.5919   34.3590 O   0  0  0  0  0  0  0  0  0  0  0  0
    9.3698   42.7293   33.6978 O   0  0  0  0  0  0  0  0  0  0  0  0
    9.8868   41.2337   34.2840 P   0  0  0  0  0  5  0  0  0  0  0  0
   10.3664   41.4704   35.8745 O   0  0  0  0  0  1  0  0  0  0  0  0
    9.9498   45.1176   33.2499 C   0  0  2  0  0  0  0  0  0  0  0  0
   11.0754   46.0253   33.4790 N   0  0  0  0  0  0  0  0  0  0  0  0
    8.6580   45.6939   33.8719 C   0  0  0  0  0  0  0  0  0  0  0  0
    7.4386   44.9425   33.4329 C   0  0  0  0  0  0  0  0  0  0  0  0
    6.8423   44.0282   34.3084 O   0  0  0  0  0  0  0  0  0  0  0  0
    6.9797   45.1169   32.2709 O   0  0  0  0  0  0  0  0  0  0  0  0
    5.7022   43.2440   33.9637 C   0  0  0  0  0  0  0  0  0  0  0  0
    4.4687   44.1101   33.8486 C   0  0  0  0  0  0  0  0  0  0  0  0
    4.0461   44.9725   34.8976 C   0  0  0  0  0  0  0  0  0  0  0  0
    3.7417   44.0870   32.6441 C   0  0  0  0  0  0  0  0  0  0  0  0
    4.7334   45.0361   36.1610 N   0  0  0  0  0  4  0  0  0  0  0  0
    2.9318   45.8051   34.6905 C   0  0  0  0  0  0  0  0  0  0  0  0
    2.6294   44.9102   32.4670 C   0  0  0  0  0  0  0  0  0  0  0  0
    4.7298   46.2053   36.8865 O   0  0  0  0  0  1  0  0  0  0  0  0
    5.1963   44.0050   36.6899 O   0  0  0  0  0  0  0  0  0  0  0  0
    2.2281   45.7709   33.4861 C   0  0  0  0  0  0  0  0  0  0  0  0
    8.8082   40.1918   34.2085 O   0  0  0  0  0  0  0  0  0  0  0  0
   11.2381   40.7890   33.3682 O   0  0  0  0  0  0  0  0  0  0  0  0
   10.9163   40.6887   31.9951 C   0  0  0  0  0  0  0  0  0  0  0  0
   11.5253   39.3871   31.4363 C   0  0  0  0  0  0  0  0  0  0  0  0
   12.7488   39.0878   32.0800 O   0  0  0  0  0  0  0  0  0  0  0  0
   10.6100   38.1909   31.6470 C   0  0  0  0  0  0  0  0  0  0  0  0
   12.9348   37.6806   32.0291 C   0  0  0  0  0  0  0  0  0  0  0  0
    9.6126   38.0874   30.6547 O   0  0  0  0  0  0  0  0  0  0  0  0
   11.5766   37.0133   31.7025 C   0  0  0  0  0  0  0  0  0  0  0  0
   13.4901   37.2165   33.3236 N   0  0  0  0  0  0  0  0  0  0  0  0
   11.6321   36.3231   30.4740 O   0  0  0  0  0  0  0  0  0  0  0  0
   14.4763   36.3266   33.5727 C   0  0  0  0  0  0  0  0  0  0  0  0
   13.1179   37.6307   34.5689 C   0  0  0  0  0  0  0  0  0  0  0  0
   15.2065   35.6134   32.6739 N   0  0  0  0  0  0  0  0  0  0  0  0
   14.6736   36.2272   34.9182 C   0  0  0  0  0  0  0  0  0  0  0  0
   13.8228   37.0453   35.5783 N   0  0  0  0  0  0  0  0  0  0  0  0
   16.1639   34.7592   33.1547 C   0  0  0  0  0  0  0  0  0  0  0  0
   15.6518   35.3491   35.4131 C   0  0  0  0  0  0  0  0  0  0  0  0
   16.3794   34.6309   34.5042 N   0  0  0  0  0  0  0  0  0  0  0  0
   15.9004   35.1933   36.8089 N   0  0  0  0  0  0  0  0  0  0  0  0
    9.8101   45.0041   32.1516 H   0  0  0  0  0  0  0  0  0  0  0  0
   10.9072   46.9081   32.9434 H   0  0  0  0  0  0  0  0  0  0  0  0
   11.1196   46.2820   34.4931 H   0  0  0  0  0  0  0  0  0  0  0  0
    8.5395   46.7556   33.5645 H   0  0  0  0  0  0  0  0  0  0  0  0
    8.7267   45.6742   34.9818 H   0  0  0  0  0  0  0  0  0  0  0  0
    5.9106   42.6954   33.0187 H   0  0  0  0  0  0  0  0  0  0  0  0
    5.5386   42.4722   34.7432 H   0  0  0  0  0  0  0  0  0  0  0  0
    4.0426   43.4376   31.8312 H   0  0  0  0  0  0  0  0  0  0  0  0
    2.5946   46.4735   35.4725 H   0  0  0  0  0  0  0  0  0  0  0  0
    2.0813   44.8853   31.5340 H   0  0  0  0  0  0  0  0  0  0  0  0
    1.3673   46.4115   33.3443 H   0  0  0  0  0  0  0  0  0  0  0  0
    9.8262   40.7201   31.7580 H   0  0  0  0  0  0  0  0  0  0  0  0
   11.3849   41.5505   31.4735 H   0  0  0  0  0  0  0  0  0  0  0  0
   11.7272   39.5284   30.3499 H   0  0  0  0  0  0  0  0  0  0  0  0
   10.1122   38.2731   32.6390 H   0  0  0  0  0  0  0  0  0  0  0  0
   13.6685   37.4589   31.2223 H   0  0  0  0  0  0  0  0  0  0  0  0
   10.0513   38.1111   29.7647 H   0  0  0  0  0  0  0  0  0  0  0  0
   11.2801   36.3128   32.5194 H   0  0  0  0  0  0  0  0  0  0  0  0
   10.8624   35.6960   30.4644 H   0  0  0  0  0  0  0  0  0  0  0  0
   12.3356   38.3581   34.7445 H   0  0  0  0  0  0  0  0  0  0  0  0
   16.7574   34.1787   32.4620 H   0  0  0  0  0  0  0  0  0  0  0  0
   16.6364   34.5315   37.1415 H   0  0  0  0  0  0  0  0  0  0  0  0
   15.3531   35.7355   37.5138 H   0  0  0  0  0  0  0  0  0  0  0  0
  1  2  2  0
  1  3  1  0
  3  4  1  0
  4  5  1  0
  6  1  1  0
  7  6  1  0
  6  8  1  0
  8  9  1  0
  9 10  1  0
  9 11  2  0
 10 12  1  0
 12 13  1  0
 13 14  2  0
 15 13  1  0
 14 16  1  0
 14 17  1  0
 18 15  2  0
 16 19  1  0
 16 20  2  0
 17 21  2  0
 21 18  1  0
  4 22  2  0
  4 23  1  0
 24 23  1  0
 24 25  1  0
 25 26  1  0
 25 27  1  0
 26 28  1  0
 27 29  1  0
 27 30  1  0
 30 28  1  0
 28 31  1  0
 30 32  1  0
 33 31  1  0
 34 31  1  0
 35 33  2  0
 33 36  1  0
 37 34  2  0
 38 35  1  0
 36 39  2  0
 36 37  1  0
 40 38  2  0
 40 39  1  0
 39 41  1  0
  6 42  1  6
  7 43  1  0
  7 44  1  0
  8 45  1  0
  8 46  1  0
 12 47  1  0
 12 48  1  0
 15 49  1  0
 17 50  1  0
 18 51  1  0
 21 52  1  0
 24 53  1  0
 24 54  1  0
 25 55  1  0
 27 56  1  0
 28 57  1  0
 29 58  1  0
 30 59  1  0
 32 60  1  0
 34 61  1  0
 38 62  1  0
 41 63  1  0
 41 64  1  0
M  CHG  3   5  -1  16   1  19  -1
M  END
>  <EmbedRMS>  (325) 
0.08823143636510955

$$$$

     RDKit          3D

 64 67  0  0  0  0  0  0  0  0999 V2000
   10.2863   43.7710   33.8101 C   0  0  0  0  0  0  0  0  0  0  0  0
   11.4101   43.5818   34.3618 O   0  0  0  0  0  0  0  0  0  0  0  0
    9.3671   42.7307   33.7018 O   0  0  0  0  0  0  0  0  0  0  0  0
    9.8851   41.2327   34.2838 P   0  0  0  0  0  5  0  0  0  0  0  0
   10.3652   41.4674   35.8745 O   0  0  0  0  0  1  0  0  0  0  0  0
    9.9611   45.1120   33.2466 C   0  0  2  0  0  0  0  0  0  0  0  0
   11.0653   46.0479   33.4749 N   0  0  0  0  0  0  0  0  0  0  0  0
    8.6645   45.6573   33.8684 C   0  0  0  0  0  0  0  0  0  0  0  0
    8.2698   46.9560   33.2366 C   0  0  0  0  0  0  0  0  0  0  0  0
    7.6175   46.9459   31.9973 O   0  0  0  0  0  0  0  0  0  0  0  0
    8.5662   48.0438   33.8022 O   0  0  0  0  0  0  0  0  0  0  0  0
    7.2245   48.1304   31.3018 C   0  0  0  0  0  0  0  0  0  0  0  0
    8.2788   48.6171   30.3251 C   0  0  0  0  0  0  0  0  0  0  0  0
    7.9395   49.5268   29.2859 C   0  0  0  0  0  0  0  0  0  0  0  0
    9.6132   48.1698   30.4265 C   0  0  0  0  0  0  0  0  0  0  0  0
    6.6083   50.0575   29.1483 N   0  0  0  0  0  4  0  0  0  0  0  0
    8.9256   49.9164   28.3610 C   0  0  0  0  0  0  0  0  0  0  0  0
   10.5782   48.5828   29.5074 C   0  0  0  0  0  0  0  0  0  0  0  0
    5.8912   50.4474   30.2556 O   0  0  0  0  0  1  0  0  0  0  0  0
    6.1573   50.3296   28.0163 O   0  0  0  0  0  0  0  0  0  0  0  0
   10.2341   49.4487   28.4732 C   0  0  0  0  0  0  0  0  0  0  0  0
    8.8075   40.1901   34.2071 O   0  0  0  0  0  0  0  0  0  0  0  0
   11.2381   40.7897   33.3686 O   0  0  0  0  0  0  0  0  0  0  0  0
   10.9194   40.6894   31.9947 C   0  0  0  0  0  0  0  0  0  0  0  0
   11.5171   39.3801   31.4396 C   0  0  0  0  0  0  0  0  0  0  0  0
   12.7479   39.0861   32.0733 O   0  0  0  0  0  0  0  0  0  0  0  0
   10.6031   38.1891   31.6666 C   0  0  0  0  0  0  0  0  0  0  0  0
   12.9335   37.6796   32.0279 C   0  0  0  0  0  0  0  0  0  0  0  0
    9.6396   38.0777   30.6456 O   0  0  0  0  0  0  0  0  0  0  0  0
   11.5739   37.0154   31.7057 C   0  0  0  0  0  0  0  0  0  0  0  0
   13.4903   37.2178   33.3231 N   0  0  0  0  0  0  0  0  0  0  0  0
   11.6211   36.3376   30.4695 O   0  0  0  0  0  0  0  0  0  0  0  0
   14.4761   36.3273   33.5725 C   0  0  0  0  0  0  0  0  0  0  0  0
   13.1178   37.6316   34.5684 C   0  0  0  0  0  0  0  0  0  0  0  0
   15.2063   35.6139   32.6737 N   0  0  0  0  0  0  0  0  0  0  0  0
   14.6734   36.2277   34.9179 C   0  0  0  0  0  0  0  0  0  0  0  0
   13.8225   37.0459   35.5779 N   0  0  0  0  0  0  0  0  0  0  0  0
   16.1636   34.7594   33.1546 C   0  0  0  0  0  0  0  0  0  0  0  0
   15.6515   35.3494   35.4129 C   0  0  0  0  0  0  0  0  0  0  0  0
   16.3791   34.6311   34.5041 N   0  0  0  0  0  0  0  0  0  0  0  0
   15.9001   35.1935   36.8088 N   0  0  0  0  0  0  0  0  0  0  0  0
    9.8119   44.9933   32.1503 H   0  0  0  0  0  0  0  0  0  0  0  0
   11.9213   45.7041   32.9806 H   0  0  0  0  0  0  0  0  0  0  0  0
   11.2762   46.1169   34.4981 H   0  0  0  0  0  0  0  0  0  0  0  0
    8.7941   45.7954   34.9648 H   0  0  0  0  0  0  0  0  0  0  0  0
    7.8370   44.9312   33.7138 H   0  0  0  0  0  0  0  0  0  0  0  0
    6.3023   47.8841   30.7346 H   0  0  0  0  0  0  0  0  0  0  0  0
    6.9736   48.9371   32.0237 H   0  0  0  0  0  0  0  0  0  0  0  0
    9.9210   47.4894   31.2057 H   0  0  0  0  0  0  0  0  0  0  0  0
    8.6836   50.6029   27.5594 H   0  0  0  0  0  0  0  0  0  0  0  0
   11.5961   48.2250   29.5952 H   0  0  0  0  0  0  0  0  0  0  0  0
   10.9847   49.7641   27.7599 H   0  0  0  0  0  0  0  0  0  0  0  0
    9.8316   40.7399   31.7544 H   0  0  0  0  0  0  0  0  0  0  0  0
   11.4014   41.5437   31.4731 H   0  0  0  0  0  0  0  0  0  0  0  0
   11.6983   39.5042   30.3470 H   0  0  0  0  0  0  0  0  0  0  0  0
   10.1090   38.2632   32.6649 H   0  0  0  0  0  0  0  0  0  0  0  0
   13.6656   37.4540   31.2207 H   0  0  0  0  0  0  0  0  0  0  0  0
    8.8965   38.6900   30.8851 H   0  0  0  0  0  0  0  0  0  0  0  0
   11.2845   36.3060   32.5175 H   0  0  0  0  0  0  0  0  0  0  0  0
   10.8523   35.7094   30.4590 H   0  0  0  0  0  0  0  0  0  0  0  0
   12.3353   38.3588   34.7439 H   0  0  0  0  0  0  0  0  0  0  0  0
   16.7570   34.1788   32.4619 H   0  0  0  0  0  0  0  0  0  0  0  0
   16.6360   34.5317   37.1413 H   0  0  0  0  0  0  0  0  0  0  0  0
   15.3529   35.7359   37.5136 H   0  0  0  0  0  0  0  0  0  0  0  0
  1  2  2  0
  1  3  1  0
  3  4  1  0
  4  5  1  0
  6  1  1  0
  7  6  1  0
  6  8  1  0
  8  9  1  0
  9 10  1  0
  9 11  2  0
 10 12  1  0
 12 13  1  0
 13 14  2  0
 15 13  1  0
 14 16  1  0
 14 17  1  0
 18 15  2  0
 16 19  1  0
 16 20  2  0
 17 21  2  0
 21 18  1  0
  4 22  2  0
  4 23  1  0
 24 23  1  0
 24 25  1  0
 25 26  1  0
 25 27  1  0
 26 28  1  0
 27 29  1  0
 27 30  1  0
 30 28  1  0
 28 31  1  0
 30 32  1  0
 33 31  1  0
 34 31  1  0
 35 33  2  0
 33 36  1  0
 37 34  2  0
 38 35  1  0
 36 39  2  0
 36 37  1  0
 40 38  2  0
 40 39  1  0
 39 41  1  0
  6 42  1  6
  7 43  1  0
  7 44  1  0
  8 45  1  0
  8 46  1  0
 12 47  1  0
 12 48  1  0
 15 49  1  0
 17 50  1  0
 18 51  1  0
 21 52  1  0
 24 53  1  0
 24 54  1  0
 25 55  1  0
 27 56  1  0
 28 57  1  0
 29 58  1  0
 30 59  1  0
 32 60  1  0
 34 61  1  0
 38 62  1  0
 41 63  1  0
 41 64  1  0
M  CHG  3   5  -1  16   1  19  -1
M  END
>  <EmbedRMS>  (326) 
0.08994246697391925

$$$$

     RDKit          3D

 64 67  0  0  0  0  0  0  0  0999 V2000
   10.2838   43.7719   33.8099 C   0  0  0  0  0  0  0  0  0  0  0  0
   11.4076   43.5834   34.3621 O   0  0  0  0  0  0  0  0  0  0  0  0
    9.3719   42.7271   33.6949 O   0  0  0  0  0  0  0  0  0  0  0  0
    9.8859   41.2320   34.2844 P   0  0  0  0  0  5  0  0  0  0  0  0
   10.3641   41.4699   35.8752 O   0  0  0  0  0  1  0  0  0  0  0  0
    9.9530   45.1216   33.2580 C   0  0  2  0  0  0  0  0  0  0  0  0
   11.0708   46.0439   33.4694 N   0  0  0  0  0  0  0  0  0  0  0  0
    8.6840   45.7074   33.9101 C   0  0  0  0  0  0  0  0  0  0  0  0
    7.4326   45.0783   33.3758 C   0  0  0  0  0  0  0  0  0  0  0  0
    6.9479   43.9072   33.9622 O   0  0  0  0  0  0  0  0  0  0  0  0
    6.8495   45.5887   32.3807 O   0  0  0  0  0  0  0  0  0  0  0  0
    5.7868   43.2262   33.4984 C   0  0  0  0  0  0  0  0  0  0  0  0
    5.6898   41.8786   34.1707 C   0  0  0  0  0  0  0  0  0  0  0  0
    5.7374   41.7317   35.5845 C   0  0  0  0  0  0  0  0  0  0  0  0
    5.5975   40.7281   33.3648 C   0  0  0  0  0  0  0  0  0  0  0  0
    5.8101   42.8648   36.4692 N   0  0  0  0  0  4  0  0  0  0  0  0
    5.7310   40.4392   36.1386 C   0  0  0  0  0  0  0  0  0  0  0  0
    5.5734   39.4561   33.9377 C   0  0  0  0  0  0  0  0  0  0  0  0
    6.4440   42.7473   37.6848 O   0  0  0  0  0  1  0  0  0  0  0  0
    5.1689   43.9072   36.2258 O   0  0  0  0  0  0  0  0  0  0  0  0
    5.6465   39.3117   35.3211 C   0  0  0  0  0  0  0  0  0  0  0  0
    8.8090   40.1893   34.2084 O   0  0  0  0  0  0  0  0  0  0  0  0
   11.2375   40.7880   33.3697 O   0  0  0  0  0  0  0  0  0  0  0  0
   10.9157   40.6891   31.9966 C   0  0  0  0  0  0  0  0  0  0  0  0
   11.5268   39.3896   31.4372 C   0  0  0  0  0  0  0  0  0  0  0  0
   12.7508   39.0914   32.0834 O   0  0  0  0  0  0  0  0  0  0  0  0
   10.6119   38.1915   31.6453 C   0  0  0  0  0  0  0  0  0  0  0  0
   12.9427   37.6851   32.0294 C   0  0  0  0  0  0  0  0  0  0  0  0
    9.6066   38.0858   30.6604 O   0  0  0  0  0  0  0  0  0  0  0  0
   11.5842   37.0185   31.6880 C   0  0  0  0  0  0  0  0  0  0  0  0
   13.4897   37.2163   33.3249 N   0  0  0  0  0  0  0  0  0  0  0  0
   11.6198   36.3062   30.4693 O   0  0  0  0  0  0  0  0  0  0  0  0
   14.4758   36.3263   33.5738 C   0  0  0  0  0  0  0  0  0  0  0  0
   13.1174   37.6308   34.5698 C   0  0  0  0  0  0  0  0  0  0  0  0
   15.2065   35.6139   32.6746 N   0  0  0  0  0  0  0  0  0  0  0  0
   14.6730   36.2268   34.9191 C   0  0  0  0  0  0  0  0  0  0  0  0
   13.8223   37.0451   35.5792 N   0  0  0  0  0  0  0  0  0  0  0  0
   16.1639   34.7596   33.1552 C   0  0  0  0  0  0  0  0  0  0  0  0
   15.6516   35.3489   35.4136 C   0  0  0  0  0  0  0  0  0  0  0  0
   16.3794   34.6310   34.5046 N   0  0  0  0  0  0  0  0  0  0  0  0
   15.9004   35.1932   36.8094 N   0  0  0  0  0  0  0  0  0  0  0  0
    9.7882   45.0227   32.1619 H   0  0  0  0  0  0  0  0  0  0  0  0
   11.9173   45.6888   32.9665 H   0  0  0  0  0  0  0  0  0  0  0  0
   11.2942   46.1141   34.4900 H   0  0  0  0  0  0  0  0  0  0  0  0
    8.7225   45.5776   35.0140 H   0  0  0  0  0  0  0  0  0  0  0  0
    8.6377   46.8006   33.7095 H   0  0  0  0  0  0  0  0  0  0  0  0
    4.8789   43.8267   33.7167 H   0  0  0  0  0  0  0  0  0  0  0  0
    5.8524   43.1081   32.3941 H   0  0  0  0  0  0  0  0  0  0  0  0
    5.5582   40.8117   32.2858 H   0  0  0  0  0  0  0  0  0  0  0  0
    5.7745   40.3033   37.2117 H   0  0  0  0  0  0  0  0  0  0  0  0
    5.5084   38.5796   33.3058 H   0  0  0  0  0  0  0  0  0  0  0  0
    5.6347   38.3234   35.7624 H   0  0  0  0  0  0  0  0  0  0  0  0
    9.8254   40.7188   31.7593 H   0  0  0  0  0  0  0  0  0  0  0  0
   11.3829   41.5523   31.4760 H   0  0  0  0  0  0  0  0  0  0  0  0
   11.7314   39.5339   30.3518 H   0  0  0  0  0  0  0  0  0  0  0  0
   10.1210   38.2682   32.6413 H   0  0  0  0  0  0  0  0  0  0  0  0
   13.6879   37.4703   31.2318 H   0  0  0  0  0  0  0  0  0  0  0  0
   10.0251   38.1754   29.7657 H   0  0  0  0  0  0  0  0  0  0  0  0
   11.2793   36.3123   32.4916 H   0  0  0  0  0  0  0  0  0  0  0  0
   11.9867   36.9099   29.7714 H   0  0  0  0  0  0  0  0  0  0  0  0
   12.3363   38.3595   34.7452 H   0  0  0  0  0  0  0  0  0  0  0  0
   16.7575   34.1794   32.4623 H   0  0  0  0  0  0  0  0  0  0  0  0
   15.3530   35.7352   37.5144 H   0  0  0  0  0  0  0  0  0  0  0  0
   16.6367   34.5316   37.1419 H   0  0  0  0  0  0  0  0  0  0  0  0
  1  2  2  0
  1  3  1  0
  3  4  1  0
  4  5  1  0
  6  1  1  0
  7  6  1  0
  6  8  1  0
  8  9  1  0
  9 10  1  0
  9 11  2  0
 10 12  1  0
 12 13  1  0
 13 14  2  0
 15 13  1  0
 14 16  1  0
 14 17  1  0
 18 15  2  0
 16 19  1  0
 16 20  2  0
 17 21  2  0
 21 18  1  0
  4 22  2  0
  4 23  1  0
 24 23  1  0
 24 25  1  0
 25 26  1  0
 25 27  1  0
 26 28  1  0
 27 29  1  0
 27 30  1  0
 30 28  1  0
 28 31  1  0
 30 32  1  0
 33 31  1  0
 34 31  1  0
 35 33  2  0
 33 36  1  0
 37 34  2  0
 38 35  1  0
 36 39  2  0
 36 37  1  0
 40 38  2  0
 40 39  1  0
 39 41  1  0
  6 42  1  6
  7 43  1  0
  7 44  1  0
  8 45  1  0
  8 46  1  0
 12 47  1  0
 12 48  1  0
 15 49  1  0
 17 50  1  0
 18 51  1  0
 21 52  1  0
 24 53  1  0
 24 54  1  0
 25 55  1  0
 27 56  1  0
 28 57  1  0
 29 58  1  0
 30 59  1  0
 32 60  1  0
 34 61  1  0
 38 62  1  0
 41 63  1  0
 41 64  1  0
M  CHG  3   5  -1  16   1  19  -1
M  END
>  <EmbedRMS>  (327) 
0.08792782325812055

$$$$

     RDKit          3D

 64 67  0  0  0  0  0  0  0  0999 V2000
   10.2890   43.7679   33.8060 C   0  0  0  0  0  0  0  0  0  0  0  0
   11.4125   43.5787   34.3579 O   0  0  0  0  0  0  0  0  0  0  0  0
    9.3673   42.7300   33.7006 O   0  0  0  0  0  0  0  0  0  0  0  0
    9.8840   41.2329   34.2851 P   0  0  0  0  0  5  0  0  0  0  0  0
   10.3636   41.4693   35.8758 O   0  0  0  0  0  1  0  0  0  0  0  0
    9.9624   45.1125   33.2499 C   0  0  2  0  0  0  0  0  0  0  0  0
   11.0616   46.0541   33.4773 N   0  0  0  0  0  0  0  0  0  0  0  0
    8.6454   45.6676   33.8259 C   0  0  0  0  0  0  0  0  0  0  0  0
    8.6742   45.7931   35.3205 C   0  0  0  0  0  0  0  0  0  0  0  0
    8.4278   44.6632   36.1092 O   0  0  0  0  0  0  0  0  0  0  0  0
    8.9496   46.9032   35.8526 O   0  0  0  0  0  0  0  0  0  0  0  0
    8.4620   44.6826   37.5356 C   0  0  0  0  0  0  0  0  0  0  0  0
    7.2821   45.4368   38.1112 C   0  0  0  0  0  0  0  0  0  0  0  0
    7.3836   46.1680   39.3236 C   0  0  0  0  0  0  0  0  0  0  0  0
    6.0441   45.3934   37.4407 C   0  0  0  0  0  0  0  0  0  0  0  0
    8.5854   46.1563   40.1126 N   0  0  0  0  0  4  0  0  0  0  0  0
    6.2745   46.9048   39.7772 C   0  0  0  0  0  0  0  0  0  0  0  0
    4.9496   46.1160   37.9174 C   0  0  0  0  0  0  0  0  0  0  0  0
    9.2527   44.9749   40.3407 O   0  0  0  0  0  1  0  0  0  0  0  0
    8.9189   47.1703   40.7601 O   0  0  0  0  0  0  0  0  0  0  0  0
    5.0681   46.8802   39.0765 C   0  0  0  0  0  0  0  0  0  0  0  0
    8.8065   40.1903   34.2083 O   0  0  0  0  0  0  0  0  0  0  0  0
   11.2371   40.7894   33.3706 O   0  0  0  0  0  0  0  0  0  0  0  0
   10.9186   40.6903   31.9968 C   0  0  0  0  0  0  0  0  0  0  0  0
   11.5174   39.3824   31.4414 C   0  0  0  0  0  0  0  0  0  0  0  0
   12.7494   39.0893   32.0756 O   0  0  0  0  0  0  0  0  0  0  0  0
   10.6036   38.1899   31.6660 C   0  0  0  0  0  0  0  0  0  0  0  0
   12.9401   37.6834   32.0276 C   0  0  0  0  0  0  0  0  0  0  0  0
    9.6376   38.0785   30.6474 O   0  0  0  0  0  0  0  0  0  0  0  0
   11.5804   37.0204   31.6937 C   0  0  0  0  0  0  0  0  0  0  0  0
   13.4902   37.2177   33.3237 N   0  0  0  0  0  0  0  0  0  0  0  0
   11.6118   36.3193   30.4680 O   0  0  0  0  0  0  0  0  0  0  0  0
   14.4759   36.3271   33.5731 C   0  0  0  0  0  0  0  0  0  0  0  0
   13.1176   37.6317   34.5688 C   0  0  0  0  0  0  0  0  0  0  0  0
   15.2064   35.6141   32.6742 N   0  0  0  0  0  0  0  0  0  0  0  0
   14.6729   36.2274   34.9184 C   0  0  0  0  0  0  0  0  0  0  0  0
   13.8221   37.0457   35.5783 N   0  0  0  0  0  0  0  0  0  0  0  0
   16.1637   34.7597   33.1549 C   0  0  0  0  0  0  0  0  0  0  0  0
   15.6514   35.3493   35.4133 C   0  0  0  0  0  0  0  0  0  0  0  0
   16.3791   34.6312   34.5044 N   0  0  0  0  0  0  0  0  0  0  0  0
   15.9001   35.1935   36.8091 N   0  0  0  0  0  0  0  0  0  0  0  0
    9.8252   44.9971   32.1522 H   0  0  0  0  0  0  0  0  0  0  0  0
   11.3000   46.1008   34.4953 H   0  0  0  0  0  0  0  0  0  0  0  0
   11.9097   45.7246   32.9601 H   0  0  0  0  0  0  0  0  0  0  0  0
    7.8040   44.9998   33.5397 H   0  0  0  0  0  0  0  0  0  0  0  0
    8.4391   46.6625   33.3739 H   0  0  0  0  0  0  0  0  0  0  0  0
    9.4261   45.1324   37.8542 H   0  0  0  0  0  0  0  0  0  0  0  0
    8.4280   43.6367   37.9054 H   0  0  0  0  0  0  0  0  0  0  0  0
    5.9264   44.8099   36.5361 H   0  0  0  0  0  0  0  0  0  0  0  0
    6.3363   47.4781   40.6936 H   0  0  0  0  0  0  0  0  0  0  0  0
    4.0081   46.0858   37.3844 H   0  0  0  0  0  0  0  0  0  0  0  0
    4.2185   47.4421   39.4425 H   0  0  0  0  0  0  0  0  0  0  0  0
   11.4000   41.5455   31.4760 H   0  0  0  0  0  0  0  0  0  0  0  0
    9.8309   40.7398   31.7562 H   0  0  0  0  0  0  0  0  0  0  0  0
   11.6987   39.5095   30.3491 H   0  0  0  0  0  0  0  0  0  0  0  0
   10.1129   38.2587   32.6664 H   0  0  0  0  0  0  0  0  0  0  0  0
   13.6800   37.4628   31.2265 H   0  0  0  0  0  0  0  0  0  0  0  0
    8.8953   38.6909   30.8891 H   0  0  0  0  0  0  0  0  0  0  0  0
   11.2831   36.3060   32.4929 H   0  0  0  0  0  0  0  0  0  0  0  0
   11.8859   36.9590   29.7593 H   0  0  0  0  0  0  0  0  0  0  0  0
   12.3360   38.3600   34.7442 H   0  0  0  0  0  0  0  0  0  0  0  0
   16.7572   34.1793   32.4621 H   0  0  0  0  0  0  0  0  0  0  0  0
   15.3528   35.7357   37.5140 H   0  0  0  0  0  0  0  0  0  0  0  0
   16.6362   34.5318   37.1416 H   0  0  0  0  0  0  0  0  0  0  0  0
  1  2  2  0
  1  3  1  0
  3  4  1  0
  4  5  1  0
  6  1  1  0
  7  6  1  0
  6  8  1  0
  8  9  1  0
  9 10  1  0
  9 11  2  0
 10 12  1  0
 12 13  1  0
 13 14  2  0
 15 13  1  0
 14 16  1  0
 14 17  1  0
 18 15  2  0
 16 19  1  0
 16 20  2  0
 17 21  2  0
 21 18  1  0
  4 22  2  0
  4 23  1  0
 24 23  1  0
 24 25  1  0
 25 26  1  0
 25 27  1  0
 26 28  1  0
 27 29  1  0
 27 30  1  0
 30 28  1  0
 28 31  1  0
 30 32  1  0
 33 31  1  0
 34 31  1  0
 35 33  2  0
 33 36  1  0
 37 34  2  0
 38 35  1  0
 36 39  2  0
 36 37  1  0
 40 38  2  0
 40 39  1  0
 39 41  1  0
  6 42  1  6
  7 43  1  0
  7 44  1  0
  8 45  1  0
  8 46  1  0
 12 47  1  0
 12 48  1  0
 15 49  1  0
 17 50  1  0
 18 51  1  0
 21 52  1  0
 24 53  1  0
 24 54  1  0
 25 55  1  0
 27 56  1  0
 28 57  1  0
 29 58  1  0
 30 59  1  0
 32 60  1  0
 34 61  1  0
 38 62  1  0
 41 63  1  0
 41 64  1  0
M  CHG  3   5  -1  16   1  19  -1
M  END
>  <EmbedRMS>  (328) 
0.08897543578979325

$$$$

     RDKit          3D

 64 67  0  0  0  0  0  0  0  0999 V2000
   10.2862   43.7717   33.8042 C   0  0  0  0  0  0  0  0  0  0  0  0
   11.4087   43.5881   34.3607 O   0  0  0  0  0  0  0  0  0  0  0  0
    9.3677   42.7307   33.6989 O   0  0  0  0  0  0  0  0  0  0  0  0
    9.8858   41.2339   34.2836 P   0  0  0  0  0  5  0  0  0  0  0  0
   10.3655   41.4701   35.8743 O   0  0  0  0  0  1  0  0  0  0  0  0
    9.9531   45.1148   33.2535 C   0  0  2  0  0  0  0  0  0  0  0  0
   11.0712   46.0332   33.4770 N   0  0  0  0  0  0  0  0  0  0  0  0
    8.6594   45.6654   33.8880 C   0  0  0  0  0  0  0  0  0  0  0  0
    8.7690   45.8124   35.3773 C   0  0  0  0  0  0  0  0  0  0  0  0
    9.5106   46.8690   35.9122 O   0  0  0  0  0  0  0  0  0  0  0  0
    8.2186   44.9655   36.1330 O   0  0  0  0  0  0  0  0  0  0  0  0
    9.6755   47.0605   37.3129 C   0  0  0  0  0  0  0  0  0  0  0  0
   10.5930   48.2308   37.5516 C   0  0  0  0  0  0  0  0  0  0  0  0
   12.0081   48.0963   37.5676 C   0  0  0  0  0  0  0  0  0  0  0  0
   10.0202   49.4991   37.7554 C   0  0  0  0  0  0  0  0  0  0  0  0
   12.6603   46.8381   37.3155 N   0  0  0  0  0  4  0  0  0  0  0  0
   12.7980   49.2262   37.8460 C   0  0  0  0  0  0  0  0  0  0  0  0
   10.8241   50.6102   38.0126 C   0  0  0  0  0  0  0  0  0  0  0  0
   13.8808   46.5702   37.8918 O   0  0  0  0  0  1  0  0  0  0  0  0
   12.2253   46.0572   36.4448 O   0  0  0  0  0  0  0  0  0  0  0  0
   12.2096   50.4726   38.0653 C   0  0  0  0  0  0  0  0  0  0  0  0
    8.8083   40.1911   34.2077 O   0  0  0  0  0  0  0  0  0  0  0  0
   11.2386   40.7898   33.3687 O   0  0  0  0  0  0  0  0  0  0  0  0
   10.9197   40.6894   31.9949 C   0  0  0  0  0  0  0  0  0  0  0  0
   11.5172   39.3801   31.4397 C   0  0  0  0  0  0  0  0  0  0  0  0
   12.7480   39.0861   32.0733 O   0  0  0  0  0  0  0  0  0  0  0  0
   10.6032   38.1891   31.6666 C   0  0  0  0  0  0  0  0  0  0  0  0
   12.9336   37.6796   32.0279 C   0  0  0  0  0  0  0  0  0  0  0  0
    9.6397   38.0777   30.6456 O   0  0  0  0  0  0  0  0  0  0  0  0
   11.5739   37.0154   31.7057 C   0  0  0  0  0  0  0  0  0  0  0  0
   13.4903   37.2178   33.3231 N   0  0  0  0  0  0  0  0  0  0  0  0
   11.6211   36.3376   30.4695 O   0  0  0  0  0  0  0  0  0  0  0  0
   14.4761   36.3273   33.5725 C   0  0  0  0  0  0  0  0  0  0  0  0
   13.1179   37.6317   34.5684 C   0  0  0  0  0  0  0  0  0  0  0  0
   15.2063   35.6139   32.6737 N   0  0  0  0  0  0  0  0  0  0  0  0
   14.6734   36.2277   34.9180 C   0  0  0  0  0  0  0  0  0  0  0  0
   13.8225   37.0459   35.5779 N   0  0  0  0  0  0  0  0  0  0  0  0
   16.1636   34.7594   33.1546 C   0  0  0  0  0  0  0  0  0  0  0  0
   15.6515   35.3494   35.4129 C   0  0  0  0  0  0  0  0  0  0  0  0
   16.3791   34.6311   34.5041 N   0  0  0  0  0  0  0  0  0  0  0  0
   15.9001   35.1936   36.8088 N   0  0  0  0  0  0  0  0  0  0  0  0
    9.7844   45.0062   32.1584 H   0  0  0  0  0  0  0  0  0  0  0  0
   11.8838   45.7116   32.9011 H   0  0  0  0  0  0  0  0  0  0  0  0
   10.8113   46.9715   33.0944 H   0  0  0  0  0  0  0  0  0  0  0  0
    8.4244   46.6582   33.4476 H   0  0  0  0  0  0  0  0  0  0  0  0
    7.8080   44.9938   33.6401 H   0  0  0  0  0  0  0  0  0  0  0  0
   10.0875   46.1424   37.7841 H   0  0  0  0  0  0  0  0  0  0  0  0
    8.6820   47.2440   37.7781 H   0  0  0  0  0  0  0  0  0  0  0  0
    8.9450   49.6273   37.7256 H   0  0  0  0  0  0  0  0  0  0  0  0
   13.8774   49.1468   37.8722 H   0  0  0  0  0  0  0  0  0  0  0  0
   10.3708   51.5796   38.1755 H   0  0  0  0  0  0  0  0  0  0  0  0
   12.8308   51.3355   38.2684 H   0  0  0  0  0  0  0  0  0  0  0  0
   11.4016   41.5437   31.4731 H   0  0  0  0  0  0  0  0  0  0  0  0
    9.8319   40.7398   31.7546 H   0  0  0  0  0  0  0  0  0  0  0  0
   11.6983   39.5043   30.3470 H   0  0  0  0  0  0  0  0  0  0  0  0
   10.1090   38.2632   32.6649 H   0  0  0  0  0  0  0  0  0  0  0  0
   13.6656   37.4540   31.2207 H   0  0  0  0  0  0  0  0  0  0  0  0
    8.8966   38.6901   30.8851 H   0  0  0  0  0  0  0  0  0  0  0  0
   11.2846   36.3060   32.5175 H   0  0  0  0  0  0  0  0  0  0  0  0
   10.8523   35.7094   30.4590 H   0  0  0  0  0  0  0  0  0  0  0  0
   12.3353   38.3588   34.7439 H   0  0  0  0  0  0  0  0  0  0  0  0
   16.7570   34.1788   32.4619 H   0  0  0  0  0  0  0  0  0  0  0  0
   15.3529   35.7359   37.5136 H   0  0  0  0  0  0  0  0  0  0  0  0
   16.6360   34.5317   37.1414 H   0  0  0  0  0  0  0  0  0  0  0  0
  1  2  2  0
  1  3  1  0
  3  4  1  0
  4  5  1  0
  6  1  1  0
  7  6  1  0
  6  8  1  0
  8  9  1  0
  9 10  1  0
  9 11  2  0
 10 12  1  0
 12 13  1  0
 13 14  2  0
 15 13  1  0
 14 16  1  0
 14 17  1  0
 18 15  2  0
 16 19  1  0
 16 20  2  0
 17 21  2  0
 21 18  1  0
  4 22  2  0
  4 23  1  0
 24 23  1  0
 24 25  1  0
 25 26  1  0
 25 27  1  0
 26 28  1  0
 27 29  1  0
 27 30  1  0
 30 28  1  0
 28 31  1  0
 30 32  1  0
 33 31  1  0
 34 31  1  0
 35 33  2  0
 33 36  1  0
 37 34  2  0
 38 35  1  0
 36 39  2  0
 36 37  1  0
 40 38  2  0
 40 39  1  0
 39 41  1  0
  6 42  1  6
  7 43  1  0
  7 44  1  0
  8 45  1  0
  8 46  1  0
 12 47  1  0
 12 48  1  0
 15 49  1  0
 17 50  1  0
 18 51  1  0
 21 52  1  0
 24 53  1  0
 24 54  1  0
 25 55  1  0
 27 56  1  0
 28 57  1  0
 29 58  1  0
 30 59  1  0
 32 60  1  0
 34 61  1  0
 38 62  1  0
 41 63  1  0
 41 64  1  0
M  CHG  3   5  -1  16   1  19  -1
M  END
>  <EmbedRMS>  (329) 
0.08943006395565418

$$$$

     RDKit          3D

 64 67  0  0  0  0  0  0  0  0999 V2000
   10.2865   43.7700   33.8112 C   0  0  0  0  0  0  0  0  0  0  0  0
   11.4139   43.5782   34.3539 O   0  0  0  0  0  0  0  0  0  0  0  0
    9.3651   42.7317   33.7064 O   0  0  0  0  0  0  0  0  0  0  0  0
    9.8835   41.2331   34.2859 P   0  0  0  0  0  5  0  0  0  0  0  0
   10.3649   41.4648   35.8762 O   0  0  0  0  0  1  0  0  0  0  0  0
    9.9703   45.1074   33.2339 C   0  0  2  0  0  0  0  0  0  0  0  0
   11.0571   46.0575   33.4855 N   0  0  0  0  0  0  0  0  0  0  0  0
    8.6273   45.6614   33.7464 C   0  0  0  0  0  0  0  0  0  0  0  0
    8.6247   45.9283   35.2226 C   0  0  0  0  0  0  0  0  0  0  0  0
    8.4119   44.8731   36.1177 O   0  0  0  0  0  0  0  0  0  0  0  0
    8.8284   47.0992   35.6457 O   0  0  0  0  0  0  0  0  0  0  0  0
    8.3428   45.0546   37.5324 C   0  0  0  0  0  0  0  0  0  0  0  0
    9.6926   45.4302   38.1052 C   0  0  0  0  0  0  0  0  0  0  0  0
    9.8371   46.4153   39.1164 C   0  0  0  0  0  0  0  0  0  0  0  0
   10.8396   44.7775   37.6186 C   0  0  0  0  0  0  0  0  0  0  0  0
    8.6969   47.0297   39.7382 N   0  0  0  0  0  4  0  0  0  0  0  0
   11.1274   46.7806   39.5407 C   0  0  0  0  0  0  0  0  0  0  0  0
   12.1108   45.1404   38.0643 C   0  0  0  0  0  0  0  0  0  0  0  0
    7.6456   46.2540   40.1696 O   0  0  0  0  0  1  0  0  0  0  0  0
    8.7447   48.2274   40.0872 O   0  0  0  0  0  0  0  0  0  0  0  0
   12.2554   46.1494   39.0145 C   0  0  0  0  0  0  0  0  0  0  0  0
    8.8062   40.1904   34.2084 O   0  0  0  0  0  0  0  0  0  0  0  0
   11.2357   40.7910   33.3694 O   0  0  0  0  0  0  0  0  0  0  0  0
   10.9145   40.6900   31.9964 C   0  0  0  0  0  0  0  0  0  0  0  0
   11.5266   39.3901   31.4377 C   0  0  0  0  0  0  0  0  0  0  0  0
   12.7504   39.0919   32.0842 O   0  0  0  0  0  0  0  0  0  0  0  0
   10.6120   38.1916   31.6453 C   0  0  0  0  0  0  0  0  0  0  0  0
   12.9428   37.6855   32.0296 C   0  0  0  0  0  0  0  0  0  0  0  0
    9.6069   38.0858   30.6602 O   0  0  0  0  0  0  0  0  0  0  0  0
   11.5845   37.0187   31.6880 C   0  0  0  0  0  0  0  0  0  0  0  0
   13.4899   37.2165   33.3250 N   0  0  0  0  0  0  0  0  0  0  0  0
   11.6202   36.3064   30.4693 O   0  0  0  0  0  0  0  0  0  0  0  0
   14.4758   36.3264   33.5738 C   0  0  0  0  0  0  0  0  0  0  0  0
   13.1176   37.6308   34.5699 C   0  0  0  0  0  0  0  0  0  0  0  0
   15.2065   35.6139   32.6746 N   0  0  0  0  0  0  0  0  0  0  0  0
   14.6731   36.2268   34.9191 C   0  0  0  0  0  0  0  0  0  0  0  0
   13.8224   37.0450   35.5792 N   0  0  0  0  0  0  0  0  0  0  0  0
   16.1640   34.7596   33.1551 C   0  0  0  0  0  0  0  0  0  0  0  0
   15.6517   35.3489   35.4136 C   0  0  0  0  0  0  0  0  0  0  0  0
   16.3795   34.6310   34.5045 N   0  0  0  0  0  0  0  0  0  0  0  0
   15.9006   35.1931   36.8094 N   0  0  0  0  0  0  0  0  0  0  0  0
    9.8741   44.9756   32.1336 H   0  0  0  0  0  0  0  0  0  0  0  0
   11.9192   45.7342   32.9880 H   0  0  0  0  0  0  0  0  0  0  0  0
   11.2725   46.1044   34.5089 H   0  0  0  0  0  0  0  0  0  0  0  0
    7.8110   44.9453   33.5089 H   0  0  0  0  0  0  0  0  0  0  0  0
    8.3965   46.6042   33.2038 H   0  0  0  0  0  0  0  0  0  0  0  0
    7.5740   45.8265   37.7425 H   0  0  0  0  0  0  0  0  0  0  0  0
    8.0122   44.1031   37.9986 H   0  0  0  0  0  0  0  0  0  0  0  0
   10.7497   43.9936   36.8801 H   0  0  0  0  0  0  0  0  0  0  0  0
   11.2581   47.5382   40.3032 H   0  0  0  0  0  0  0  0  0  0  0  0
   12.9855   44.6402   37.6689 H   0  0  0  0  0  0  0  0  0  0  0  0
   13.2426   46.4316   39.3571 H   0  0  0  0  0  0  0  0  0  0  0  0
   11.3812   41.5530   31.4750 H   0  0  0  0  0  0  0  0  0  0  0  0
    9.8244   40.7190   31.7593 H   0  0  0  0  0  0  0  0  0  0  0  0
   11.7314   39.5342   30.3524 H   0  0  0  0  0  0  0  0  0  0  0  0
   10.1212   38.2680   32.6413 H   0  0  0  0  0  0  0  0  0  0  0  0
   13.6881   37.4713   31.2319 H   0  0  0  0  0  0  0  0  0  0  0  0
   10.0257   38.1752   29.7656 H   0  0  0  0  0  0  0  0  0  0  0  0
   11.2796   36.3124   32.4916 H   0  0  0  0  0  0  0  0  0  0  0  0
   11.9872   36.9101   29.7715 H   0  0  0  0  0  0  0  0  0  0  0  0
   12.3366   38.3597   34.7454 H   0  0  0  0  0  0  0  0  0  0  0  0
   16.7576   34.1795   32.4622 H   0  0  0  0  0  0  0  0  0  0  0  0
   16.6368   34.5316   37.1418 H   0  0  0  0  0  0  0  0  0  0  0  0
   15.3532   35.7351   37.5143 H   0  0  0  0  0  0  0  0  0  0  0  0
  1  2  2  0
  1  3  1  0
  3  4  1  0
  4  5  1  0
  6  1  1  0
  7  6  1  0
  6  8  1  0
  8  9  1  0
  9 10  1  0
  9 11  2  0
 10 12  1  0
 12 13  1  0
 13 14  2  0
 15 13  1  0
 14 16  1  0
 14 17  1  0
 18 15  2  0
 16 19  1  0
 16 20  2  0
 17 21  2  0
 21 18  1  0
  4 22  2  0
  4 23  1  0
 24 23  1  0
 24 25  1  0
 25 26  1  0
 25 27  1  0
 26 28  1  0
 27 29  1  0
 27 30  1  0
 30 28  1  0
 28 31  1  0
 30 32  1  0
 33 31  1  0
 34 31  1  0
 35 33  2  0
 33 36  1  0
 37 34  2  0
 38 35  1  0
 36 39  2  0
 36 37  1  0
 40 38  2  0
 40 39  1  0
 39 41  1  0
  6 42  1  6
  7 43  1  0
  7 44  1  0
  8 45  1  0
  8 46  1  0
 12 47  1  0
 12 48  1  0
 15 49  1  0
 17 50  1  0
 18 51  1  0
 21 52  1  0
 24 53  1  0
 24 54  1  0
 25 55  1  0
 27 56  1  0
 28 57  1  0
 29 58  1  0
 30 59  1  0
 32 60  1  0
 34 61  1  0
 38 62  1  0
 41 63  1  0
 41 64  1  0
M  CHG  3   5  -1  16   1  19  -1
M  END
>  <EmbedRMS>  (330) 
0.08781195319207603

$$$$

     RDKit          3D

 64 67  0  0  0  0  0  0  0  0999 V2000
   10.2808   43.7747   33.8065 C   0  0  0  0  0  0  0  0  0  0  0  0
   11.4034   43.5906   34.3636 O   0  0  0  0  0  0  0  0  0  0  0  0
    9.3681   42.7291   33.6956 O   0  0  0  0  0  0  0  0  0  0  0  0
    9.8867   41.2338   34.2837 P   0  0  0  0  0  5  0  0  0  0  0  0
   10.3652   41.4712   35.8745 O   0  0  0  0  0  1  0  0  0  0  0  0
    9.9479   45.1219   33.2568 C   0  0  2  0  0  0  0  0  0  0  0  0
   11.0803   46.0244   33.4732 N   0  0  0  0  0  0  0  0  0  0  0  0
    8.6904   45.6976   33.9430 C   0  0  0  0  0  0  0  0  0  0  0  0
    7.4325   45.0599   33.4366 C   0  0  0  0  0  0  0  0  0  0  0  0
    6.8512   44.0113   34.1541 O   0  0  0  0  0  0  0  0  0  0  0  0
    6.9209   45.4600   32.3551 O   0  0  0  0  0  0  0  0  0  0  0  0
    5.6319   43.3931   33.7576 C   0  0  0  0  0  0  0  0  0  0  0  0
    5.3350   42.2371   34.6754 C   0  0  0  0  0  0  0  0  0  0  0  0
    4.6927   42.4097   35.9303 C   0  0  0  0  0  0  0  0  0  0  0  0
    5.7139   40.9455   34.2681 C   0  0  0  0  0  0  0  0  0  0  0  0
    4.3135   43.7100   36.4177 N   0  0  0  0  0  4  0  0  0  0  0  0
    4.4120   41.2760   36.7156 C   0  0  0  0  0  0  0  0  0  0  0  0
    5.4417   39.8369   35.0702 C   0  0  0  0  0  0  0  0  0  0  0  0
    5.1431   44.7935   36.2459 O   0  0  0  0  0  1  0  0  0  0  0  0
    3.3093   43.8350   37.1490 O   0  0  0  0  0  0  0  0  0  0  0  0
    4.7869   40.0011   36.2890 C   0  0  0  0  0  0  0  0  0  0  0  0
    8.8128   40.1879   34.2084 O   0  0  0  0  0  0  0  0  0  0  0  0
   11.2395   40.7911   33.3694 O   0  0  0  0  0  0  0  0  0  0  0  0
   10.9191   40.6905   31.9961 C   0  0  0  0  0  0  0  0  0  0  0  0
   11.5175   39.3823   31.4412 C   0  0  0  0  0  0  0  0  0  0  0  0
   12.7495   39.0891   32.0754 O   0  0  0  0  0  0  0  0  0  0  0  0
   10.6035   38.1900   31.6662 C   0  0  0  0  0  0  0  0  0  0  0  0
   12.9400   37.6832   32.0276 C   0  0  0  0  0  0  0  0  0  0  0  0
    9.6373   38.0788   30.6479 O   0  0  0  0  0  0  0  0  0  0  0  0
   11.5802   37.0204   31.6938 C   0  0  0  0  0  0  0  0  0  0  0  0
   13.4901   37.2177   33.3237 N   0  0  0  0  0  0  0  0  0  0  0  0
   11.6115   36.3194   30.4680 O   0  0  0  0  0  0  0  0  0  0  0  0
   14.4758   36.3271   33.5731 C   0  0  0  0  0  0  0  0  0  0  0  0
   13.1175   37.6317   34.5688 C   0  0  0  0  0  0  0  0  0  0  0  0
   15.2064   35.6141   32.6742 N   0  0  0  0  0  0  0  0  0  0  0  0
   14.6729   36.2274   34.9184 C   0  0  0  0  0  0  0  0  0  0  0  0
   13.8221   37.0457   35.5783 N   0  0  0  0  0  0  0  0  0  0  0  0
   16.1637   34.7597   33.1549 C   0  0  0  0  0  0  0  0  0  0  0  0
   15.6514   35.3493   35.4133 C   0  0  0  0  0  0  0  0  0  0  0  0
   16.3791   34.6312   34.5044 N   0  0  0  0  0  0  0  0  0  0  0  0
   15.9001   35.1935   36.8091 N   0  0  0  0  0  0  0  0  0  0  0  0
    9.7667   45.0263   32.1616 H   0  0  0  0  0  0  0  0  0  0  0  0
   10.8449   46.9583   33.0648 H   0  0  0  0  0  0  0  0  0  0  0  0
   11.8920   45.6779   32.9101 H   0  0  0  0  0  0  0  0  0  0  0  0
    8.6188   46.7897   33.7470 H   0  0  0  0  0  0  0  0  0  0  0  0
    8.7588   45.5686   35.0458 H   0  0  0  0  0  0  0  0  0  0  0  0
    4.8024   44.1319   33.7820 H   0  0  0  0  0  0  0  0  0  0  0  0
    5.7209   43.0381   32.7069 H   0  0  0  0  0  0  0  0  0  0  0  0
    6.2159   40.7939   33.3202 H   0  0  0  0  0  0  0  0  0  0  0  0
    3.9180   41.3820   37.6732 H   0  0  0  0  0  0  0  0  0  0  0  0
    5.7363   38.8479   34.7435 H   0  0  0  0  0  0  0  0  0  0  0  0
    4.5739   39.1392   36.9081 H   0  0  0  0  0  0  0  0  0  0  0  0
   11.3996   41.5453   31.4739 H   0  0  0  0  0  0  0  0  0  0  0  0
    9.8310   40.7395   31.7563 H   0  0  0  0  0  0  0  0  0  0  0  0
   11.6988   39.5089   30.3489 H   0  0  0  0  0  0  0  0  0  0  0  0
   10.1131   38.2591   32.6668 H   0  0  0  0  0  0  0  0  0  0  0  0
   13.6799   37.4625   31.2265 H   0  0  0  0  0  0  0  0  0  0  0  0
    8.8942   38.6898   30.8908 H   0  0  0  0  0  0  0  0  0  0  0  0
   11.2829   36.3060   32.4930 H   0  0  0  0  0  0  0  0  0  0  0  0
   11.8854   36.9591   29.7593 H   0  0  0  0  0  0  0  0  0  0  0  0
   12.3359   38.3599   34.7441 H   0  0  0  0  0  0  0  0  0  0  0  0
   16.7572   34.1793   32.4621 H   0  0  0  0  0  0  0  0  0  0  0  0
   16.6362   34.5318   37.1416 H   0  0  0  0  0  0  0  0  0  0  0  0
   15.3528   35.7357   37.5140 H   0  0  0  0  0  0  0  0  0  0  0  0
  1  2  2  0
  1  3  1  0
  3  4  1  0
  4  5  1  0
  6  1  1  0
  7  6  1  0
  6  8  1  0
  8  9  1  0
  9 10  1  0
  9 11  2  0
 10 12  1  0
 12 13  1  0
 13 14  2  0
 15 13  1  0
 14 16  1  0
 14 17  1  0
 18 15  2  0
 16 19  1  0
 16 20  2  0
 17 21  2  0
 21 18  1  0
  4 22  2  0
  4 23  1  0
 24 23  1  0
 24 25  1  0
 25 26  1  0
 25 27  1  0
 26 28  1  0
 27 29  1  0
 27 30  1  0
 30 28  1  0
 28 31  1  0
 30 32  1  0
 33 31  1  0
 34 31  1  0
 35 33  2  0
 33 36  1  0
 37 34  2  0
 38 35  1  0
 36 39  2  0
 36 37  1  0
 40 38  2  0
 40 39  1  0
 39 41  1  0
  6 42  1  6
  7 43  1  0
  7 44  1  0
  8 45  1  0
  8 46  1  0
 12 47  1  0
 12 48  1  0
 15 49  1  0
 17 50  1  0
 18 51  1  0
 21 52  1  0
 24 53  1  0
 24 54  1  0
 25 55  1  0
 27 56  1  0
 28 57  1  0
 29 58  1  0
 30 59  1  0
 32 60  1  0
 34 61  1  0
 38 62  1  0
 41 63  1  0
 41 64  1  0
M  CHG  3   5  -1  16   1  19  -1
M  END
>  <EmbedRMS>  (331) 
0.08825770380507392

$$$$

     RDKit          3D

 64 67  0  0  0  0  0  0  0  0999 V2000
   10.2862   43.7711   33.8098 C   0  0  0  0  0  0  0  0  0  0  0  0
   11.4100   43.5819   34.3616 O   0  0  0  0  0  0  0  0  0  0  0  0
    9.3669   42.7308   33.7016 O   0  0  0  0  0  0  0  0  0  0  0  0
    9.8850   41.2328   34.2832 P   0  0  0  0  0  5  0  0  0  0  0  0
   10.3662   41.4674   35.8737 O   0  0  0  0  0  1  0  0  0  0  0  0
    9.9604   45.1127   33.2476 C   0  0  2  0  0  0  0  0  0  0  0  0
   11.0658   46.0474   33.4747 N   0  0  0  0  0  0  0  0  0  0  0  0
    8.6652   45.6573   33.8732 C   0  0  0  0  0  0  0  0  0  0  0  0
    8.2731   46.9620   33.2520 C   0  0  0  0  0  0  0  0  0  0  0  0
    8.7735   48.1532   33.7839 O   0  0  0  0  0  0  0  0  0  0  0  0
    7.5305   46.9735   32.2324 O   0  0  0  0  0  0  0  0  0  0  0  0
    8.4670   49.4309   33.2348 C   0  0  0  0  0  0  0  0  0  0  0  0
    9.2184   50.5001   33.9884 C   0  0  0  0  0  0  0  0  0  0  0  0
   10.6352   50.4829   34.1146 C   0  0  0  0  0  0  0  0  0  0  0  0
    8.4857   51.5215   34.6215 C   0  0  0  0  0  0  0  0  0  0  0  0
   11.4481   49.4759   33.4841 N   0  0  0  0  0  4  0  0  0  0  0  0
   11.2642   51.4696   34.8947 C   0  0  0  0  0  0  0  0  0  0  0  0
    9.1330   52.5000   35.3768 C   0  0  0  0  0  0  0  0  0  0  0  0
   12.6356   49.0911   34.0631 O   0  0  0  0  0  1  0  0  0  0  0  0
   11.1808   49.0652   32.3366 O   0  0  0  0  0  0  0  0  0  0  0  0
   10.5186   52.4714   35.5169 C   0  0  0  0  0  0  0  0  0  0  0  0
    8.8071   40.1904   34.2077 O   0  0  0  0  0  0  0  0  0  0  0  0
   11.2368   40.7901   33.3660 O   0  0  0  0  0  0  0  0  0  0  0  0
   10.9142   40.6849   31.9931 C   0  0  0  0  0  0  0  0  0  0  0  0
   11.5166   39.3773   31.4393 C   0  0  0  0  0  0  0  0  0  0  0  0
   12.7472   39.0854   32.0739 O   0  0  0  0  0  0  0  0  0  0  0  0
   10.6047   38.1867   31.6669 C   0  0  0  0  0  0  0  0  0  0  0  0
   12.9345   37.6791   32.0282 C   0  0  0  0  0  0  0  0  0  0  0  0
    9.6378   38.0917   30.6488 O   0  0  0  0  0  0  0  0  0  0  0  0
   11.5761   37.0129   31.7056 C   0  0  0  0  0  0  0  0  0  0  0  0
   13.4909   37.2177   33.3233 N   0  0  0  0  0  0  0  0  0  0  0  0
   11.6234   36.3371   30.4684 O   0  0  0  0  0  0  0  0  0  0  0  0
   14.4765   36.3272   33.5727 C   0  0  0  0  0  0  0  0  0  0  0  0
   13.1182   37.6316   34.5685 C   0  0  0  0  0  0  0  0  0  0  0  0
   15.2066   35.6137   32.6739 N   0  0  0  0  0  0  0  0  0  0  0  0
   14.6736   36.2276   34.9182 C   0  0  0  0  0  0  0  0  0  0  0  0
   13.8227   37.0457   35.5781 N   0  0  0  0  0  0  0  0  0  0  0  0
   16.1638   34.7593   33.1548 C   0  0  0  0  0  0  0  0  0  0  0  0
   15.6517   35.3492   35.4131 C   0  0  0  0  0  0  0  0  0  0  0  0
   16.3792   34.6309   34.5043 N   0  0  0  0  0  0  0  0  0  0  0  0
   15.9002   35.1934   36.8090 N   0  0  0  0  0  0  0  0  0  0  0  0
    9.8085   44.9961   32.1515 H   0  0  0  0  0  0  0  0  0  0  0  0
   11.9223   45.7020   32.9826 H   0  0  0  0  0  0  0  0  0  0  0  0
   11.2753   46.1202   34.4979 H   0  0  0  0  0  0  0  0  0  0  0  0
    8.8011   45.8000   34.9677 H   0  0  0  0  0  0  0  0  0  0  0  0
    7.8373   44.9289   33.7272 H   0  0  0  0  0  0  0  0  0  0  0  0
    7.3686   49.5934   33.2984 H   0  0  0  0  0  0  0  0  0  0  0  0
    8.7418   49.4673   32.1596 H   0  0  0  0  0  0  0  0  0  0  0  0
    7.4063   51.5579   34.5402 H   0  0  0  0  0  0  0  0  0  0  0  0
   12.3409   51.4734   35.0085 H   0  0  0  0  0  0  0  0  0  0  0  0
    8.5572   53.2785   35.8605 H   0  0  0  0  0  0  0  0  0  0  0  0
   11.0176   53.2292   36.1072 H   0  0  0  0  0  0  0  0  0  0  0  0
   11.3873   41.5415   31.4671 H   0  0  0  0  0  0  0  0  0  0  0  0
    9.8242   40.7213   31.7563 H   0  0  0  0  0  0  0  0  0  0  0  0
   11.6986   39.5012   30.3467 H   0  0  0  0  0  0  0  0  0  0  0  0
   10.1096   38.2770   32.6629 H   0  0  0  0  0  0  0  0  0  0  0  0
   13.6672   37.4545   31.2213 H   0  0  0  0  0  0  0  0  0  0  0  0
    8.9779   37.4156   30.9533 H   0  0  0  0  0  0  0  0  0  0  0  0
   11.2861   36.3041   32.5176 H   0  0  0  0  0  0  0  0  0  0  0  0
   10.8690   35.6918   30.4657 H   0  0  0  0  0  0  0  0  0  0  0  0
   12.3356   38.3587   34.7439 H   0  0  0  0  0  0  0  0  0  0  0  0
   16.7572   34.1786   32.4621 H   0  0  0  0  0  0  0  0  0  0  0  0
   15.3530   35.7358   37.5138 H   0  0  0  0  0  0  0  0  0  0  0  0
   16.6361   34.5315   37.1415 H   0  0  0  0  0  0  0  0  0  0  0  0
  1  2  2  0
  1  3  1  0
  3  4  1  0
  4  5  1  0
  6  1  1  0
  7  6  1  0
  6  8  1  0
  8  9  1  0
  9 10  1  0
  9 11  2  0
 10 12  1  0
 12 13  1  0
 13 14  2  0
 15 13  1  0
 14 16  1  0
 14 17  1  0
 18 15  2  0
 16 19  1  0
 16 20  2  0
 17 21  2  0
 21 18  1  0
  4 22  2  0
  4 23  1  0
 24 23  1  0
 24 25  1  0
 25 26  1  0
 25 27  1  0
 26 28  1  0
 27 29  1  0
 27 30  1  0
 30 28  1  0
 28 31  1  0
 30 32  1  0
 33 31  1  0
 34 31  1  0
 35 33  2  0
 33 36  1  0
 37 34  2  0
 38 35  1  0
 36 39  2  0
 36 37  1  0
 40 38  2  0
 40 39  1  0
 39 41  1  0
  6 42  1  6
  7 43  1  0
  7 44  1  0
  8 45  1  0
  8 46  1  0
 12 47  1  0
 12 48  1  0
 15 49  1  0
 17 50  1  0
 18 51  1  0
 21 52  1  0
 24 53  1  0
 24 54  1  0
 25 55  1  0
 27 56  1  0
 28 57  1  0
 29 58  1  0
 30 59  1  0
 32 60  1  0
 34 61  1  0
 38 62  1  0
 41 63  1  0
 41 64  1  0
M  CHG  3   5  -1  16   1  19  -1
M  END
>  <EmbedRMS>  (332) 
0.08950855178133421

$$$$

     RDKit          3D

 64 67  0  0  0  0  0  0  0  0999 V2000
   10.2861   43.7720   33.8056 C   0  0  0  0  0  0  0  0  0  0  0  0
   11.4083   43.5878   34.3624 O   0  0  0  0  0  0  0  0  0  0  0  0
    9.3675   42.7310   33.6993 O   0  0  0  0  0  0  0  0  0  0  0  0
    9.8849   41.2342   34.2843 P   0  0  0  0  0  5  0  0  0  0  0  0
   10.3653   41.4700   35.8748 O   0  0  0  0  0  1  0  0  0  0  0  0
    9.9535   45.1153   33.2544 C   0  0  2  0  0  0  0  0  0  0  0  0
   11.0710   46.0345   33.4742 N   0  0  0  0  0  0  0  0  0  0  0  0
    8.6583   45.6710   33.8845 C   0  0  0  0  0  0  0  0  0  0  0  0
    8.7821   45.8948   35.3744 C   0  0  0  0  0  0  0  0  0  0  0  0
    8.9840   47.1588   35.9490 O   0  0  0  0  0  0  0  0  0  0  0  0
    8.7314   44.8958   36.1394 O   0  0  0  0  0  0  0  0  0  0  0  0
    8.8673   48.4095   35.2701 C   0  0  0  0  0  0  0  0  0  0  0  0
    7.4245   48.7169   34.9363 C   0  0  0  0  0  0  0  0  0  0  0  0
    6.3874   48.6419   35.9064 C   0  0  0  0  0  0  0  0  0  0  0  0
    7.1015   49.0753   33.6144 C   0  0  0  0  0  0  0  0  0  0  0  0
    6.6528   48.3341   37.2868 N   0  0  0  0  0  4  0  0  0  0  0  0
    5.0587   48.8694   35.5064 C   0  0  0  0  0  0  0  0  0  0  0  0
    5.7780   49.3139   33.2433 C   0  0  0  0  0  0  0  0  0  0  0  0
    5.7034   47.6820   38.0397 O   0  0  0  0  0  1  0  0  0  0  0  0
    7.6565   48.8020   37.8621 O   0  0  0  0  0  0  0  0  0  0  0  0
    4.7578   49.2035   34.1855 C   0  0  0  0  0  0  0  0  0  0  0  0
    8.8075   40.1913   34.2086 O   0  0  0  0  0  0  0  0  0  0  0  0
   11.2368   40.7902   33.3690 O   0  0  0  0  0  0  0  0  0  0  0  0
   10.9155   40.6897   31.9959 C   0  0  0  0  0  0  0  0  0  0  0  0
   11.5270   39.3898   31.4373 C   0  0  0  0  0  0  0  0  0  0  0  0
   12.7508   39.0916   32.0838 O   0  0  0  0  0  0  0  0  0  0  0  0
   10.6122   38.1916   31.6452 C   0  0  0  0  0  0  0  0  0  0  0  0
   12.9429   37.6852   32.0295 C   0  0  0  0  0  0  0  0  0  0  0  0
    9.6070   38.0858   30.6603 O   0  0  0  0  0  0  0  0  0  0  0  0
   11.5845   37.0186   31.6879 C   0  0  0  0  0  0  0  0  0  0  0  0
   13.4899   37.2163   33.3250 N   0  0  0  0  0  0  0  0  0  0  0  0
   11.6201   36.3062   30.4693 O   0  0  0  0  0  0  0  0  0  0  0  0
   14.4759   36.3263   33.5738 C   0  0  0  0  0  0  0  0  0  0  0  0
   13.1176   37.6307   34.5699 C   0  0  0  0  0  0  0  0  0  0  0  0
   15.2065   35.6139   32.6746 N   0  0  0  0  0  0  0  0  0  0  0  0
   14.6731   36.2267   34.9191 C   0  0  0  0  0  0  0  0  0  0  0  0
   13.8224   37.0450   35.5792 N   0  0  0  0  0  0  0  0  0  0  0  0
   16.1640   34.7596   33.1551 C   0  0  0  0  0  0  0  0  0  0  0  0
   15.6517   35.3489   35.4136 C   0  0  0  0  0  0  0  0  0  0  0  0
   16.3795   34.6310   34.5046 N   0  0  0  0  0  0  0  0  0  0  0  0
   15.9006   35.1931   36.8094 N   0  0  0  0  0  0  0  0  0  0  0  0
    9.7859   45.0012   32.1595 H   0  0  0  0  0  0  0  0  0  0  0  0
   11.8995   45.6833   32.9394 H   0  0  0  0  0  0  0  0  0  0  0  0
   10.8311   46.9502   33.0300 H   0  0  0  0  0  0  0  0  0  0  0  0
    7.8241   44.9593   33.7002 H   0  0  0  0  0  0  0  0  0  0  0  0
    8.3767   46.6038   33.3607 H   0  0  0  0  0  0  0  0  0  0  0  0
    9.5132   48.4092   34.3677 H   0  0  0  0  0  0  0  0  0  0  0  0
    9.2593   49.2126   35.9274 H   0  0  0  0  0  0  0  0  0  0  0  0
    7.8755   49.1551   32.8608 H   0  0  0  0  0  0  0  0  0  0  0  0
    4.2522   48.8089   36.2262 H   0  0  0  0  0  0  0  0  0  0  0  0
    5.5425   49.5793   32.2207 H   0  0  0  0  0  0  0  0  0  0  0  0
    3.7313   49.3852   33.8941 H   0  0  0  0  0  0  0  0  0  0  0  0
   11.3827   41.5526   31.4747 H   0  0  0  0  0  0  0  0  0  0  0  0
    9.8255   40.7191   31.7586 H   0  0  0  0  0  0  0  0  0  0  0  0
   11.7318   39.5338   30.3519 H   0  0  0  0  0  0  0  0  0  0  0  0
   10.1215   38.2682   32.6412 H   0  0  0  0  0  0  0  0  0  0  0  0
   13.6882   37.4708   31.2319 H   0  0  0  0  0  0  0  0  0  0  0  0
   10.0257   38.1750   29.7656 H   0  0  0  0  0  0  0  0  0  0  0  0
   11.2795   36.3123   32.4915 H   0  0  0  0  0  0  0  0  0  0  0  0
   11.9871   36.9099   29.7714 H   0  0  0  0  0  0  0  0  0  0  0  0
   12.3365   38.3596   34.7453 H   0  0  0  0  0  0  0  0  0  0  0  0
   16.7576   34.1794   32.4622 H   0  0  0  0  0  0  0  0  0  0  0  0
   16.6368   34.5316   37.1418 H   0  0  0  0  0  0  0  0  0  0  0  0
   15.3532   35.7351   37.5143 H   0  0  0  0  0  0  0  0  0  0  0  0
  1  2  2  0
  1  3  1  0
  3  4  1  0
  4  5  1  0
  6  1  1  0
  7  6  1  0
  6  8  1  0
  8  9  1  0
  9 10  1  0
  9 11  2  0
 10 12  1  0
 12 13  1  0
 13 14  2  0
 15 13  1  0
 14 16  1  0
 14 17  1  0
 18 15  2  0
 16 19  1  0
 16 20  2  0
 17 21  2  0
 21 18  1  0
  4 22  2  0
  4 23  1  0
 24 23  1  0
 24 25  1  0
 25 26  1  0
 25 27  1  0
 26 28  1  0
 27 29  1  0
 27 30  1  0
 30 28  1  0
 28 31  1  0
 30 32  1  0
 33 31  1  0
 34 31  1  0
 35 33  2  0
 33 36  1  0
 37 34  2  0
 38 35  1  0
 36 39  2  0
 36 37  1  0
 40 38  2  0
 40 39  1  0
 39 41  1  0
  6 42  1  6
  7 43  1  0
  7 44  1  0
  8 45  1  0
  8 46  1  0
 12 47  1  0
 12 48  1  0
 15 49  1  0
 17 50  1  0
 18 51  1  0
 21 52  1  0
 24 53  1  0
 24 54  1  0
 25 55  1  0
 27 56  1  0
 28 57  1  0
 29 58  1  0
 30 59  1  0
 32 60  1  0
 34 61  1  0
 38 62  1  0
 41 63  1  0
 41 64  1  0
M  CHG  3   5  -1  16   1  19  -1
M  END
>  <EmbedRMS>  (333) 
0.08710675999975165

$$$$

     RDKit          3D

 64 67  0  0  0  0  0  0  0  0999 V2000
   10.2830   43.7754   33.8073 C   0  0  0  0  0  0  0  0  0  0  0  0
   11.4086   43.5916   34.3578 O   0  0  0  0  0  0  0  0  0  0  0  0
    9.3669   42.7318   33.7011 O   0  0  0  0  0  0  0  0  0  0  0  0
    9.8864   41.2345   34.2838 P   0  0  0  0  0  5  0  0  0  0  0  0
   10.3666   41.4695   35.8744 O   0  0  0  0  0  1  0  0  0  0  0  0
    9.9535   45.1115   33.2435 C   0  0  2  0  0  0  0  0  0  0  0  0
   11.0726   46.0261   33.4850 N   0  0  0  0  0  0  0  0  0  0  0  0
    8.6388   45.6421   33.8552 C   0  0  0  0  0  0  0  0  0  0  0  0
    8.2446   46.9633   33.2705 C   0  0  0  0  0  0  0  0  0  0  0  0
    8.2445   48.1036   34.0823 O   0  0  0  0  0  0  0  0  0  0  0  0
    7.9188   47.0383   32.0540 O   0  0  0  0  0  0  0  0  0  0  0  0
    7.9324   49.4078   33.5936 C   0  0  0  0  0  0  0  0  0  0  0  0
    9.0523   49.9462   32.7296 C   0  0  0  0  0  0  0  0  0  0  0  0
    8.8052   50.6783   31.5380 C   0  0  0  0  0  0  0  0  0  0  0  0
   10.3829   49.7210   33.1296 C   0  0  0  0  0  0  0  0  0  0  0  0
    7.4761   51.0443   31.1338 N   0  0  0  0  0  4  0  0  0  0  0  0
    9.8908   51.0759   30.7386 C   0  0  0  0  0  0  0  0  0  0  0  0
   11.4479   50.1412   32.3321 C   0  0  0  0  0  0  0  0  0  0  0  0
    7.1578   51.0988   29.7964 O   0  0  0  0  0  1  0  0  0  0  0  0
    6.6802   51.5331   31.9620 O   0  0  0  0  0  0  0  0  0  0  0  0
   11.2021   50.8060   31.1323 C   0  0  0  0  0  0  0  0  0  0  0  0
    8.8091   40.1914   34.2078 O   0  0  0  0  0  0  0  0  0  0  0  0
   11.2390   40.7910   33.3682 O   0  0  0  0  0  0  0  0  0  0  0  0
   10.9194   40.6896   31.9946 C   0  0  0  0  0  0  0  0  0  0  0  0
   11.5171   39.3801   31.4397 C   0  0  0  0  0  0  0  0  0  0  0  0
   12.7478   39.0861   32.0734 O   0  0  0  0  0  0  0  0  0  0  0  0
   10.6031   38.1891   31.6666 C   0  0  0  0  0  0  0  0  0  0  0  0
   12.9335   37.6796   32.0280 C   0  0  0  0  0  0  0  0  0  0  0  0
    9.6397   38.0777   30.6456 O   0  0  0  0  0  0  0  0  0  0  0  0
   11.5739   37.0154   31.7057 C   0  0  0  0  0  0  0  0  0  0  0  0
   13.4903   37.2178   33.3231 N   0  0  0  0  0  0  0  0  0  0  0  0
   11.6211   36.3376   30.4695 O   0  0  0  0  0  0  0  0  0  0  0  0
   14.4761   36.3273   33.5725 C   0  0  0  0  0  0  0  0  0  0  0  0
   13.1179   37.6316   34.5684 C   0  0  0  0  0  0  0  0  0  0  0  0
   15.2063   35.6139   32.6737 N   0  0  0  0  0  0  0  0  0  0  0  0
   14.6734   36.2277   34.9180 C   0  0  0  0  0  0  0  0  0  0  0  0
   13.8225   37.0459   35.5779 N   0  0  0  0  0  0  0  0  0  0  0  0
   16.1636   34.7594   33.1546 C   0  0  0  0  0  0  0  0  0  0  0  0
   15.6515   35.3494   35.4129 C   0  0  0  0  0  0  0  0  0  0  0  0
   16.3791   34.6311   34.5041 N   0  0  0  0  0  0  0  0  0  0  0  0
   15.9001   35.1935   36.8088 N   0  0  0  0  0  0  0  0  0  0  0  0
    9.8207   44.9848   32.1458 H   0  0  0  0  0  0  0  0  0  0  0  0
   10.9598   46.8668   32.8740 H   0  0  0  0  0  0  0  0  0  0  0  0
   11.0579   46.3524   34.4795 H   0  0  0  0  0  0  0  0  0  0  0  0
    7.8161   44.9196   33.6619 H   0  0  0  0  0  0  0  0  0  0  0  0
    8.7457   45.7427   34.9577 H   0  0  0  0  0  0  0  0  0  0  0  0
    6.9699   49.3522   33.0443 H   0  0  0  0  0  0  0  0  0  0  0  0
    7.7951   50.0895   34.4587 H   0  0  0  0  0  0  0  0  0  0  0  0
   10.5979   49.2005   34.0547 H   0  0  0  0  0  0  0  0  0  0  0  0
    9.7215   51.6234   29.8200 H   0  0  0  0  0  0  0  0  0  0  0  0
   12.4661   49.9460   32.6432 H   0  0  0  0  0  0  0  0  0  0  0  0
   12.0298   51.1278   30.5135 H   0  0  0  0  0  0  0  0  0  0  0  0
    9.8315   40.7396   31.7549 H   0  0  0  0  0  0  0  0  0  0  0  0
   11.4007   41.5437   31.4721 H   0  0  0  0  0  0  0  0  0  0  0  0
   11.6983   39.5041   30.3470 H   0  0  0  0  0  0  0  0  0  0  0  0
   10.1090   38.2632   32.6649 H   0  0  0  0  0  0  0  0  0  0  0  0
   13.6656   37.4541   31.2207 H   0  0  0  0  0  0  0  0  0  0  0  0
    8.8965   38.6899   30.8852 H   0  0  0  0  0  0  0  0  0  0  0  0
   11.2846   36.3060   32.5175 H   0  0  0  0  0  0  0  0  0  0  0  0
   10.8523   35.7094   30.4590 H   0  0  0  0  0  0  0  0  0  0  0  0
   12.3353   38.3588   34.7439 H   0  0  0  0  0  0  0  0  0  0  0  0
   16.7570   34.1788   32.4619 H   0  0  0  0  0  0  0  0  0  0  0  0
   15.3529   35.7359   37.5136 H   0  0  0  0  0  0  0  0  0  0  0  0
   16.6360   34.5317   37.1413 H   0  0  0  0  0  0  0  0  0  0  0  0
  1  2  2  0
  1  3  1  0
  3  4  1  0
  4  5  1  0
  6  1  1  0
  7  6  1  0
  6  8  1  0
  8  9  1  0
  9 10  1  0
  9 11  2  0
 10 12  1  0
 12 13  1  0
 13 14  2  0
 15 13  1  0
 14 16  1  0
 14 17  1  0
 18 15  2  0
 16 19  1  0
 16 20  2  0
 17 21  2  0
 21 18  1  0
  4 22  2  0
  4 23  1  0
 24 23  1  0
 24 25  1  0
 25 26  1  0
 25 27  1  0
 26 28  1  0
 27 29  1  0
 27 30  1  0
 30 28  1  0
 28 31  1  0
 30 32  1  0
 33 31  1  0
 34 31  1  0
 35 33  2  0
 33 36  1  0
 37 34  2  0
 38 35  1  0
 36 39  2  0
 36 37  1  0
 40 38  2  0
 40 39  1  0
 39 41  1  0
  6 42  1  6
  7 43  1  0
  7 44  1  0
  8 45  1  0
  8 46  1  0
 12 47  1  0
 12 48  1  0
 15 49  1  0
 17 50  1  0
 18 51  1  0
 21 52  1  0
 24 53  1  0
 24 54  1  0
 25 55  1  0
 27 56  1  0
 28 57  1  0
 29 58  1  0
 30 59  1  0
 32 60  1  0
 34 61  1  0
 38 62  1  0
 41 63  1  0
 41 64  1  0
M  CHG  3   5  -1  16   1  19  -1
M  END
>  <EmbedRMS>  (334) 
0.08913459425415952

$$$$

     RDKit          3D

 64 67  0  0  0  0  0  0  0  0999 V2000
   10.2874   43.7715   33.8027 C   0  0  0  0  0  0  0  0  0  0  0  0
   11.4094   43.5882   34.3602 O   0  0  0  0  0  0  0  0  0  0  0  0
    9.3680   42.7308   33.6993 O   0  0  0  0  0  0  0  0  0  0  0  0
    9.8852   41.2341   34.2846 P   0  0  0  0  0  5  0  0  0  0  0  0
   10.3659   41.4686   35.8743 O   0  0  0  0  0  1  0  0  0  0  0  0
    9.9533   45.1149   33.2528 C   0  0  2  0  0  0  0  0  0  0  0  0
   11.0696   46.0348   33.4788 N   0  0  0  0  0  0  0  0  0  0  0  0
    8.6571   45.6658   33.8835 C   0  0  0  0  0  0  0  0  0  0  0  0
    8.7970   45.9238   35.3558 C   0  0  0  0  0  0  0  0  0  0  0  0
    8.9584   44.8454   36.2294 O   0  0  0  0  0  0  0  0  0  0  0  0
    8.7782   47.1074   35.7913 O   0  0  0  0  0  0  0  0  0  0  0  0
    9.0686   44.9997   37.6392 C   0  0  0  0  0  0  0  0  0  0  0  0
    9.3637   43.6604   38.2618 C   0  0  0  0  0  0  0  0  0  0  0  0
    8.3442   42.7086   38.5362 C   0  0  0  0  0  0  0  0  0  0  0  0
   10.7008   43.3416   38.5615 C   0  0  0  0  0  0  0  0  0  0  0  0
    6.9629   42.9511   38.2118 N   0  0  0  0  0  4  0  0  0  0  0  0
    8.6931   41.4927   39.1510 C   0  0  0  0  0  0  0  0  0  0  0  0
   11.0260   42.1223   39.1566 C   0  0  0  0  0  0  0  0  0  0  0  0
    5.9691   42.3713   38.9666 O   0  0  0  0  0  1  0  0  0  0  0  0
    6.6483   43.5328   37.1536 O   0  0  0  0  0  0  0  0  0  0  0  0
   10.0235   41.2023   39.4564 C   0  0  0  0  0  0  0  0  0  0  0  0
    8.8076   40.1914   34.2086 O   0  0  0  0  0  0  0  0  0  0  0  0
   11.2378   40.7900   33.3699 O   0  0  0  0  0  0  0  0  0  0  0  0
   10.9188   40.6904   31.9964 C   0  0  0  0  0  0  0  0  0  0  0  0
   11.5174   39.3824   31.4413 C   0  0  0  0  0  0  0  0  0  0  0  0
   12.7494   39.0893   32.0756 O   0  0  0  0  0  0  0  0  0  0  0  0
   10.6036   38.1899   31.6660 C   0  0  0  0  0  0  0  0  0  0  0  0
   12.9401   37.6834   32.0277 C   0  0  0  0  0  0  0  0  0  0  0  0
    9.6376   38.0785   30.6475 O   0  0  0  0  0  0  0  0  0  0  0  0
   11.5803   37.0204   31.6937 C   0  0  0  0  0  0  0  0  0  0  0  0
   13.4901   37.2178   33.3238 N   0  0  0  0  0  0  0  0  0  0  0  0
   11.6118   36.3193   30.4680 O   0  0  0  0  0  0  0  0  0  0  0  0
   14.4758   36.3272   33.5732 C   0  0  0  0  0  0  0  0  0  0  0  0
   13.1175   37.6318   34.5689 C   0  0  0  0  0  0  0  0  0  0  0  0
   15.2063   35.6142   32.6742 N   0  0  0  0  0  0  0  0  0  0  0  0
   14.6729   36.2275   34.9185 C   0  0  0  0  0  0  0  0  0  0  0  0
   13.8221   37.0458   35.5784 N   0  0  0  0  0  0  0  0  0  0  0  0
   16.1636   34.7597   33.1549 C   0  0  0  0  0  0  0  0  0  0  0  0
   15.6513   35.3493   35.4133 C   0  0  0  0  0  0  0  0  0  0  0  0
   16.3791   34.6312   34.5044 N   0  0  0  0  0  0  0  0  0  0  0  0
   15.9001   35.1935   36.8091 N   0  0  0  0  0  0  0  0  0  0  0  0
    9.7868   45.0045   32.1576 H   0  0  0  0  0  0  0  0  0  0  0  0
   11.8819   45.7170   32.9002 H   0  0  0  0  0  0  0  0  0  0  0  0
   10.8062   46.9735   33.0995 H   0  0  0  0  0  0  0  0  0  0  0  0
    7.8241   44.9477   33.7230 H   0  0  0  0  0  0  0  0  0  0  0  0
    8.3732   46.6085   33.3662 H   0  0  0  0  0  0  0  0  0  0  0  0
    8.1284   45.4229   38.0529 H   0  0  0  0  0  0  0  0  0  0  0  0
    9.8824   45.7221   37.8711 H   0  0  0  0  0  0  0  0  0  0  0  0
   11.4962   44.0423   38.3387 H   0  0  0  0  0  0  0  0  0  0  0  0
    7.9333   40.7549   39.3755 H   0  0  0  0  0  0  0  0  0  0  0  0
   12.0580   41.8910   39.3866 H   0  0  0  0  0  0  0  0  0  0  0  0
   10.2782   40.2576   39.9192 H   0  0  0  0  0  0  0  0  0  0  0  0
    9.8309   40.7396   31.7561 H   0  0  0  0  0  0  0  0  0  0  0  0
   11.3998   41.5455   31.4751 H   0  0  0  0  0  0  0  0  0  0  0  0
   11.6988   39.5093   30.3490 H   0  0  0  0  0  0  0  0  0  0  0  0
   10.1130   38.2589   32.6665 H   0  0  0  0  0  0  0  0  0  0  0  0
   13.6800   37.4627   31.2266 H   0  0  0  0  0  0  0  0  0  0  0  0
    8.8952   38.6908   30.8893 H   0  0  0  0  0  0  0  0  0  0  0  0
   11.2830   36.3060   32.4929 H   0  0  0  0  0  0  0  0  0  0  0  0
   11.8859   36.9590   29.7593 H   0  0  0  0  0  0  0  0  0  0  0  0
   12.3360   38.3602   34.7443 H   0  0  0  0  0  0  0  0  0  0  0  0
   16.7572   34.1793   32.4621 H   0  0  0  0  0  0  0  0  0  0  0  0
   16.6361   34.5318   37.1416 H   0  0  0  0  0  0  0  0  0  0  0  0
   15.3528   35.7357   37.5140 H   0  0  0  0  0  0  0  0  0  0  0  0
  1  2  2  0
  1  3  1  0
  3  4  1  0
  4  5  1  0
  6  1  1  0
  7  6  1  0
  6  8  1  0
  8  9  1  0
  9 10  1  0
  9 11  2  0
 10 12  1  0
 12 13  1  0
 13 14  2  0
 15 13  1  0
 14 16  1  0
 14 17  1  0
 18 15  2  0
 16 19  1  0
 16 20  2  0
 17 21  2  0
 21 18  1  0
  4 22  2  0
  4 23  1  0
 24 23  1  0
 24 25  1  0
 25 26  1  0
 25 27  1  0
 26 28  1  0
 27 29  1  0
 27 30  1  0
 30 28  1  0
 28 31  1  0
 30 32  1  0
 33 31  1  0
 34 31  1  0
 35 33  2  0
 33 36  1  0
 37 34  2  0
 38 35  1  0
 36 39  2  0
 36 37  1  0
 40 38  2  0
 40 39  1  0
 39 41  1  0
  6 42  1  6
  7 43  1  0
  7 44  1  0
  8 45  1  0
  8 46  1  0
 12 47  1  0
 12 48  1  0
 15 49  1  0
 17 50  1  0
 18 51  1  0
 21 52  1  0
 24 53  1  0
 24 54  1  0
 25 55  1  0
 27 56  1  0
 28 57  1  0
 29 58  1  0
 30 59  1  0
 32 60  1  0
 34 61  1  0
 38 62  1  0
 41 63  1  0
 41 64  1  0
M  CHG  3   5  -1  16   1  19  -1
M  END
>  <EmbedRMS>  (335) 
0.08841570757226554

$$$$

     RDKit          3D

 64 67  0  0  0  0  0  0  0  0999 V2000
   10.2801   43.7760   33.8110 C   0  0  0  0  0  0  0  0  0  0  0  0
   11.4033   43.5920   34.3665 O   0  0  0  0  0  0  0  0  0  0  0  0
    9.3680   42.7297   33.6989 O   0  0  0  0  0  0  0  0  0  0  0  0
    9.8868   41.2335   34.2836 P   0  0  0  0  0  5  0  0  0  0  0  0
   10.3667   41.4692   35.8742 O   0  0  0  0  0  1  0  0  0  0  0  0
    9.9482   45.1207   33.2549 C   0  0  2  0  0  0  0  0  0  0  0  0
   11.0801   46.0241   33.4689 N   0  0  0  0  0  0  0  0  0  0  0  0
    8.6898   45.7074   33.9317 C   0  0  0  0  0  0  0  0  0  0  0  0
    7.4401   44.9387   33.6172 C   0  0  0  0  0  0  0  0  0  0  0  0
    6.5688   44.5954   34.6548 O   0  0  0  0  0  0  0  0  0  0  0  0
    7.1605   44.6477   32.4216 O   0  0  0  0  0  0  0  0  0  0  0  0
    5.3937   43.8193   34.4460 C   0  0  0  0  0  0  0  0  0  0  0  0
    4.6103   43.7350   35.7301 C   0  0  0  0  0  0  0  0  0  0  0  0
    4.8772   42.7497   36.7163 C   0  0  0  0  0  0  0  0  0  0  0  0
    3.5794   44.6663   35.9499 C   0  0  0  0  0  0  0  0  0  0  0  0
    5.9595   41.8135   36.5753 N   0  0  0  0  0  4  0  0  0  0  0  0
    4.0650   42.6911   37.8636 C   0  0  0  0  0  0  0  0  0  0  0  0
    2.7963   44.6022   37.1034 C   0  0  0  0  0  0  0  0  0  0  0  0
    7.1840   42.2318   36.1104 O   0  0  0  0  0  1  0  0  0  0  0  0
    5.8577   40.6623   37.0476 O   0  0  0  0  0  0  0  0  0  0  0  0
    3.0333   43.6115   38.0544 C   0  0  0  0  0  0  0  0  0  0  0  0
    8.8093   40.1905   34.2077 O   0  0  0  0  0  0  0  0  0  0  0  0
   11.2383   40.7906   33.3680 O   0  0  0  0  0  0  0  0  0  0  0  0
   10.9160   40.6897   31.9953 C   0  0  0  0  0  0  0  0  0  0  0  0
   11.5271   39.3896   31.4370 C   0  0  0  0  0  0  0  0  0  0  0  0
   12.7509   39.0915   32.0836 O   0  0  0  0  0  0  0  0  0  0  0  0
   10.6122   38.1916   31.6451 C   0  0  0  0  0  0  0  0  0  0  0  0
   12.9429   37.6851   32.0294 C   0  0  0  0  0  0  0  0  0  0  0  0
    9.6069   38.0858   30.6603 O   0  0  0  0  0  0  0  0  0  0  0  0
   11.5844   37.0185   31.6879 C   0  0  0  0  0  0  0  0  0  0  0  0
   13.4898   37.2163   33.3250 N   0  0  0  0  0  0  0  0  0  0  0  0
   11.6200   36.3062   30.4693 O   0  0  0  0  0  0  0  0  0  0  0  0
   14.4759   36.3263   33.5738 C   0  0  0  0  0  0  0  0  0  0  0  0
   13.1175   37.6307   34.5699 C   0  0  0  0  0  0  0  0  0  0  0  0
   15.2065   35.6139   32.6746 N   0  0  0  0  0  0  0  0  0  0  0  0
   14.6731   36.2267   34.9191 C   0  0  0  0  0  0  0  0  0  0  0  0
   13.8224   37.0450   35.5792 N   0  0  0  0  0  0  0  0  0  0  0  0
   16.1640   34.7596   33.1551 C   0  0  0  0  0  0  0  0  0  0  0  0
   15.6517   35.3489   35.4136 C   0  0  0  0  0  0  0  0  0  0  0  0
   16.3795   34.6310   34.5046 N   0  0  0  0  0  0  0  0  0  0  0  0
   15.9006   35.1931   36.8094 N   0  0  0  0  0  0  0  0  0  0  0  0
    9.7690   45.0188   32.1605 H   0  0  0  0  0  0  0  0  0  0  0  0
   11.8887   45.6823   32.8986 H   0  0  0  0  0  0  0  0  0  0  0  0
   10.8393   46.9607   33.0696 H   0  0  0  0  0  0  0  0  0  0  0  0
    8.5347   46.7522   33.5867 H   0  0  0  0  0  0  0  0  0  0  0  0
    8.8392   45.7381   35.0336 H   0  0  0  0  0  0  0  0  0  0  0  0
    5.6670   42.8036   34.0874 H   0  0  0  0  0  0  0  0  0  0  0  0
    4.7737   44.2895   33.6507 H   0  0  0  0  0  0  0  0  0  0  0  0
    3.3722   45.4387   35.2193 H   0  0  0  0  0  0  0  0  0  0  0  0
    4.2463   41.9428   38.6249 H   0  0  0  0  0  0  0  0  0  0  0  0
    2.0006   45.3197   37.2573 H   0  0  0  0  0  0  0  0  0  0  0  0
    2.4223   43.5617   38.9465 H   0  0  0  0  0  0  0  0  0  0  0  0
   11.3828   41.5524   31.4734 H   0  0  0  0  0  0  0  0  0  0  0  0
    9.8257   40.7191   31.7584 H   0  0  0  0  0  0  0  0  0  0  0  0
   11.7320   39.5333   30.3516 H   0  0  0  0  0  0  0  0  0  0  0  0
   10.1216   38.2685   32.6413 H   0  0  0  0  0  0  0  0  0  0  0  0
   13.6882   37.4705   31.2318 H   0  0  0  0  0  0  0  0  0  0  0  0
   10.0255   38.1749   29.7656 H   0  0  0  0  0  0  0  0  0  0  0  0
   11.2794   36.3123   32.4916 H   0  0  0  0  0  0  0  0  0  0  0  0
   11.9870   36.9098   29.7714 H   0  0  0  0  0  0  0  0  0  0  0  0
   12.3365   38.3595   34.7453 H   0  0  0  0  0  0  0  0  0  0  0  0
   16.7577   34.1794   32.4622 H   0  0  0  0  0  0  0  0  0  0  0  0
   16.6368   34.5316   37.1418 H   0  0  0  0  0  0  0  0  0  0  0  0
   15.3532   35.7351   37.5143 H   0  0  0  0  0  0  0  0  0  0  0  0
  1  2  2  0
  1  3  1  0
  3  4  1  0
  4  5  1  0
  6  1  1  0
  7  6  1  0
  6  8  1  0
  8  9  1  0
  9 10  1  0
  9 11  2  0
 10 12  1  0
 12 13  1  0
 13 14  2  0
 15 13  1  0
 14 16  1  0
 14 17  1  0
 18 15  2  0
 16 19  1  0
 16 20  2  0
 17 21  2  0
 21 18  1  0
  4 22  2  0
  4 23  1  0
 24 23  1  0
 24 25  1  0
 25 26  1  0
 25 27  1  0
 26 28  1  0
 27 29  1  0
 27 30  1  0
 30 28  1  0
 28 31  1  0
 30 32  1  0
 33 31  1  0
 34 31  1  0
 35 33  2  0
 33 36  1  0
 37 34  2  0
 38 35  1  0
 36 39  2  0
 36 37  1  0
 40 38  2  0
 40 39  1  0
 39 41  1  0
  6 42  1  6
  7 43  1  0
  7 44  1  0
  8 45  1  0
  8 46  1  0
 12 47  1  0
 12 48  1  0
 15 49  1  0
 17 50  1  0
 18 51  1  0
 21 52  1  0
 24 53  1  0
 24 54  1  0
 25 55  1  0
 27 56  1  0
 28 57  1  0
 29 58  1  0
 30 59  1  0
 32 60  1  0
 34 61  1  0
 38 62  1  0
 41 63  1  0
 41 64  1  0
M  CHG  3   5  -1  16   1  19  -1
M  END
>  <EmbedRMS>  (336) 
0.08725399094870634

$$$$

     RDKit          3D

 64 67  0  0  0  0  0  0  0  0999 V2000
   10.2828   43.7755   33.8080 C   0  0  0  0  0  0  0  0  0  0  0  0
   11.4085   43.5914   34.3580 O   0  0  0  0  0  0  0  0  0  0  0  0
    9.3666   42.7320   33.7016 O   0  0  0  0  0  0  0  0  0  0  0  0
    9.8863   41.2345   34.2833 P   0  0  0  0  0  5  0  0  0  0  0  0
   10.3676   41.4691   35.8737 O   0  0  0  0  0  1  0  0  0  0  0  0
    9.9541   45.1109   33.2425 C   0  0  2  0  0  0  0  0  0  0  0  0
   11.0722   46.0271   33.4848 N   0  0  0  0  0  0  0  0  0  0  0  0
    8.6386   45.6437   33.8486 C   0  0  0  0  0  0  0  0  0  0  0  0
    8.2381   46.9417   33.2206 C   0  0  0  0  0  0  0  0  0  0  0  0
    7.7960   46.9539   31.8933 O   0  0  0  0  0  0  0  0  0  0  0  0
    8.3356   48.0139   33.8781 O   0  0  0  0  0  0  0  0  0  0  0  0
    7.5399   48.1547   31.1679 C   0  0  0  0  0  0  0  0  0  0  0  0
    8.8266   48.9028   30.9011 C   0  0  0  0  0  0  0  0  0  0  0  0
    9.9507   48.2853   30.2874 C   0  0  0  0  0  0  0  0  0  0  0  0
    8.9234   50.2422   31.3213 C   0  0  0  0  0  0  0  0  0  0  0  0
    9.9116   46.9243   29.8185 N   0  0  0  0  0  4  0  0  0  0  0  0
   11.1428   49.0205   30.1486 C   0  0  0  0  0  0  0  0  0  0  0  0
   10.1106   50.9566   31.1588 C   0  0  0  0  0  0  0  0  0  0  0  0
    8.7859   46.4219   29.2089 O   0  0  0  0  0  1  0  0  0  0  0  0
   10.9522   46.2343   29.8138 O   0  0  0  0  0  0  0  0  0  0  0  0
   11.2196   50.3455   30.5786 C   0  0  0  0  0  0  0  0  0  0  0  0
    8.8087   40.1917   34.2082 O   0  0  0  0  0  0  0  0  0  0  0  0
   11.2376   40.7915   33.3656 O   0  0  0  0  0  0  0  0  0  0  0  0
   10.9142   40.6853   31.9929 C   0  0  0  0  0  0  0  0  0  0  0  0
   11.5166   39.3774   31.4394 C   0  0  0  0  0  0  0  0  0  0  0  0
   12.7471   39.0855   32.0740 O   0  0  0  0  0  0  0  0  0  0  0  0
   10.6047   38.1868   31.6670 C   0  0  0  0  0  0  0  0  0  0  0  0
   12.9345   37.6792   32.0282 C   0  0  0  0  0  0  0  0  0  0  0  0
    9.6378   38.0918   30.6488 O   0  0  0  0  0  0  0  0  0  0  0  0
   11.5761   37.0130   31.7057 C   0  0  0  0  0  0  0  0  0  0  0  0
   13.4909   37.2177   33.3233 N   0  0  0  0  0  0  0  0  0  0  0  0
   11.6234   36.3372   30.4684 O   0  0  0  0  0  0  0  0  0  0  0  0
   14.4765   36.3272   33.5727 C   0  0  0  0  0  0  0  0  0  0  0  0
   13.1182   37.6316   34.5685 C   0  0  0  0  0  0  0  0  0  0  0  0
   15.2066   35.6137   32.6739 N   0  0  0  0  0  0  0  0  0  0  0  0
   14.6736   36.2276   34.9182 C   0  0  0  0  0  0  0  0  0  0  0  0
   13.8227   37.0457   35.5781 N   0  0  0  0  0  0  0  0  0  0  0  0
   16.1638   34.7593   33.1547 C   0  0  0  0  0  0  0  0  0  0  0  0
   15.6517   35.3492   35.4131 C   0  0  0  0  0  0  0  0  0  0  0  0
   16.3792   34.6309   34.5043 N   0  0  0  0  0  0  0  0  0  0  0  0
   15.9002   35.1934   36.8090 N   0  0  0  0  0  0  0  0  0  0  0  0
    9.8242   44.9818   32.1452 H   0  0  0  0  0  0  0  0  0  0  0  0
   10.9427   46.8848   32.9006 H   0  0  0  0  0  0  0  0  0  0  0  0
   11.0739   46.3265   34.4877 H   0  0  0  0  0  0  0  0  0  0  0  0
    8.7461   45.7703   34.9488 H   0  0  0  0  0  0  0  0  0  0  0  0
    7.8205   44.9122   33.6720 H   0  0  0  0  0  0  0  0  0  0  0  0
    7.0511   47.9062   30.2041 H   0  0  0  0  0  0  0  0  0  0  0  0
    6.8138   48.7757   31.7374 H   0  0  0  0  0  0  0  0  0  0  0  0
    8.0806   50.7349   31.7904 H   0  0  0  0  0  0  0  0  0  0  0  0
   12.0140   48.5698   29.6900 H   0  0  0  0  0  0  0  0  0  0  0  0
   10.1727   51.9850   31.4909 H   0  0  0  0  0  0  0  0  0  0  0  0
   12.1410   50.9006   30.4581 H   0  0  0  0  0  0  0  0  0  0  0  0
    9.8240   40.7212   31.7568 H   0  0  0  0  0  0  0  0  0  0  0  0
   11.3866   41.5417   31.4661 H   0  0  0  0  0  0  0  0  0  0  0  0
   11.6987   39.5012   30.3467 H   0  0  0  0  0  0  0  0  0  0  0  0
   10.1095   38.2772   32.6629 H   0  0  0  0  0  0  0  0  0  0  0  0
   13.6672   37.4546   31.2213 H   0  0  0  0  0  0  0  0  0  0  0  0
    8.9779   37.4158   30.9534 H   0  0  0  0  0  0  0  0  0  0  0  0
   11.2860   36.3042   32.5177 H   0  0  0  0  0  0  0  0  0  0  0  0
   10.8689   35.6919   30.4657 H   0  0  0  0  0  0  0  0  0  0  0  0
   12.3356   38.3587   34.7440 H   0  0  0  0  0  0  0  0  0  0  0  0
   16.7572   34.1786   32.4621 H   0  0  0  0  0  0  0  0  0  0  0  0
   15.3530   35.7358   37.5138 H   0  0  0  0  0  0  0  0  0  0  0  0
   16.6361   34.5315   37.1415 H   0  0  0  0  0  0  0  0  0  0  0  0
  1  2  2  0
  1  3  1  0
  3  4  1  0
  4  5  1  0
  6  1  1  0
  7  6  1  0
  6  8  1  0
  8  9  1  0
  9 10  1  0
  9 11  2  0
 10 12  1  0
 12 13  1  0
 13 14  2  0
 15 13  1  0
 14 16  1  0
 14 17  1  0
 18 15  2  0
 16 19  1  0
 16 20  2  0
 17 21  2  0
 21 18  1  0
  4 22  2  0
  4 23  1  0
 24 23  1  0
 24 25  1  0
 25 26  1  0
 25 27  1  0
 26 28  1  0
 27 29  1  0
 27 30  1  0
 30 28  1  0
 28 31  1  0
 30 32  1  0
 33 31  1  0
 34 31  1  0
 35 33  2  0
 33 36  1  0
 37 34  2  0
 38 35  1  0
 36 39  2  0
 36 37  1  0
 40 38  2  0
 40 39  1  0
 39 41  1  0
  6 42  1  6
  7 43  1  0
  7 44  1  0
  8 45  1  0
  8 46  1  0
 12 47  1  0
 12 48  1  0
 15 49  1  0
 17 50  1  0
 18 51  1  0
 21 52  1  0
 24 53  1  0
 24 54  1  0
 25 55  1  0
 27 56  1  0
 28 57  1  0
 29 58  1  0
 30 59  1  0
 32 60  1  0
 34 61  1  0
 38 62  1  0
 41 63  1  0
 41 64  1  0
M  CHG  3   5  -1  16   1  19  -1
M  END
>  <EmbedRMS>  (337) 
0.08869259551050873

$$$$

     RDKit          3D

 64 67  0  0  0  0  0  0  0  0999 V2000
   10.2863   43.7708   33.8098 C   0  0  0  0  0  0  0  0  0  0  0  0
   11.4101   43.5818   34.3616 O   0  0  0  0  0  0  0  0  0  0  0  0
    9.3671   42.7306   33.7016 O   0  0  0  0  0  0  0  0  0  0  0  0
    9.8851   41.2327   34.2837 P   0  0  0  0  0  5  0  0  0  0  0  0
   10.3652   41.4675   35.8745 O   0  0  0  0  0  1  0  0  0  0  0  0
    9.9608   45.1121   33.2473 C   0  0  2  0  0  0  0  0  0  0  0  0
   11.0655   46.0481   33.4749 N   0  0  0  0  0  0  0  0  0  0  0  0
    8.6636   45.6559   33.8701 C   0  0  0  0  0  0  0  0  0  0  0  0
    8.2959   46.9751   33.2672 C   0  0  0  0  0  0  0  0  0  0  0  0
    8.7530   48.1530   33.8673 O   0  0  0  0  0  0  0  0  0  0  0  0
    7.6220   47.0110   32.2019 O   0  0  0  0  0  0  0  0  0  0  0  0
    8.6669   49.4353   33.2500 C   0  0  0  0  0  0  0  0  0  0  0  0
    9.6697   49.5457   32.1258 C   0  0  0  0  0  0  0  0  0  0  0  0
   11.0528   49.7829   32.3601 C   0  0  0  0  0  0  0  0  0  0  0  0
    9.2110   49.4091   30.8027 C   0  0  0  0  0  0  0  0  0  0  0  0
   11.5950   49.9239   33.6869 N   0  0  0  0  0  4  0  0  0  0  0  0
   11.9198   49.9059   31.2593 C   0  0  0  0  0  0  0  0  0  0  0  0
   10.0924   49.5199   29.7272 C   0  0  0  0  0  0  0  0  0  0  0  0
   12.7132   50.6994   33.8917 O   0  0  0  0  0  1  0  0  0  0  0  0
   11.1704   49.2275   34.6309 O   0  0  0  0  0  0  0  0  0  0  0  0
   11.4433   49.7714   29.9548 C   0  0  0  0  0  0  0  0  0  0  0  0
    8.8075   40.1901   34.2072 O   0  0  0  0  0  0  0  0  0  0  0  0
   11.2381   40.7897   33.3686 O   0  0  0  0  0  0  0  0  0  0  0  0
   10.9194   40.6894   31.9947 C   0  0  0  0  0  0  0  0  0  0  0  0
   11.5171   39.3801   31.4396 C   0  0  0  0  0  0  0  0  0  0  0  0
   12.7479   39.0861   32.0733 O   0  0  0  0  0  0  0  0  0  0  0  0
   10.6031   38.1891   31.6666 C   0  0  0  0  0  0  0  0  0  0  0  0
   12.9335   37.6796   32.0279 C   0  0  0  0  0  0  0  0  0  0  0  0
    9.6397   38.0777   30.6456 O   0  0  0  0  0  0  0  0  0  0  0  0
   11.5739   37.0154   31.7057 C   0  0  0  0  0  0  0  0  0  0  0  0
   13.4903   37.2178   33.3231 N   0  0  0  0  0  0  0  0  0  0  0  0
   11.6211   36.3376   30.4695 O   0  0  0  0  0  0  0  0  0  0  0  0
   14.4761   36.3273   33.5725 C   0  0  0  0  0  0  0  0  0  0  0  0
   13.1178   37.6316   34.5684 C   0  0  0  0  0  0  0  0  0  0  0  0
   15.2063   35.6139   32.6737 N   0  0  0  0  0  0  0  0  0  0  0  0
   14.6733   36.2277   34.9179 C   0  0  0  0  0  0  0  0  0  0  0  0
   13.8225   37.0459   35.5779 N   0  0  0  0  0  0  0  0  0  0  0  0
   16.1636   34.7594   33.1546 C   0  0  0  0  0  0  0  0  0  0  0  0
   15.6515   35.3494   35.4129 C   0  0  0  0  0  0  0  0  0  0  0  0
   16.3791   34.6311   34.5041 N   0  0  0  0  0  0  0  0  0  0  0  0
   15.9001   35.1935   36.8088 N   0  0  0  0  0  0  0  0  0  0  0  0
    9.8105   44.9956   32.1510 H   0  0  0  0  0  0  0  0  0  0  0  0
   11.9220   45.7038   32.9820 H   0  0  0  0  0  0  0  0  0  0  0  0
   11.2752   46.1193   34.4981 H   0  0  0  0  0  0  0  0  0  0  0  0
    8.7892   45.7772   34.9684 H   0  0  0  0  0  0  0  0  0  0  0  0
    7.8304   44.9392   33.6999 H   0  0  0  0  0  0  0  0  0  0  0  0
    7.6292   49.6125   32.8904 H   0  0  0  0  0  0  0  0  0  0  0  0
    8.8702   50.2191   34.0092 H   0  0  0  0  0  0  0  0  0  0  0  0
    8.1635   49.2234   30.6000 H   0  0  0  0  0  0  0  0  0  0  0  0
   12.9756   50.0905   31.4116 H   0  0  0  0  0  0  0  0  0  0  0  0
    9.7256   49.4148   28.7143 H   0  0  0  0  0  0  0  0  0  0  0  0
   12.1246   49.8599   29.1184 H   0  0  0  0  0  0  0  0  0  0  0  0
   11.4014   41.5437   31.4731 H   0  0  0  0  0  0  0  0  0  0  0  0
    9.8317   40.7398   31.7544 H   0  0  0  0  0  0  0  0  0  0  0  0
   11.6983   39.5042   30.3470 H   0  0  0  0  0  0  0  0  0  0  0  0
   10.1090   38.2632   32.6649 H   0  0  0  0  0  0  0  0  0  0  0  0
   13.6656   37.4540   31.2207 H   0  0  0  0  0  0  0  0  0  0  0  0
    8.8965   38.6900   30.8851 H   0  0  0  0  0  0  0  0  0  0  0  0
   11.2846   36.3060   32.5175 H   0  0  0  0  0  0  0  0  0  0  0  0
   10.8523   35.7094   30.4590 H   0  0  0  0  0  0  0  0  0  0  0  0
   12.3353   38.3588   34.7439 H   0  0  0  0  0  0  0  0  0  0  0  0
   16.7570   34.1788   32.4619 H   0  0  0  0  0  0  0  0  0  0  0  0
   16.6360   34.5317   37.1414 H   0  0  0  0  0  0  0  0  0  0  0  0
   15.3529   35.7359   37.5136 H   0  0  0  0  0  0  0  0  0  0  0  0
  1  2  2  0
  1  3  1  0
  3  4  1  0
  4  5  1  0
  6  1  1  0
  7  6  1  0
  6  8  1  0
  8  9  1  0
  9 10  1  0
  9 11  2  0
 10 12  1  0
 12 13  1  0
 13 14  2  0
 15 13  1  0
 14 16  1  0
 14 17  1  0
 18 15  2  0
 16 19  1  0
 16 20  2  0
 17 21  2  0
 21 18  1  0
  4 22  2  0
  4 23  1  0
 24 23  1  0
 24 25  1  0
 25 26  1  0
 25 27  1  0
 26 28  1  0
 27 29  1  0
 27 30  1  0
 30 28  1  0
 28 31  1  0
 30 32  1  0
 33 31  1  0
 34 31  1  0
 35 33  2  0
 33 36  1  0
 37 34  2  0
 38 35  1  0
 36 39  2  0
 36 37  1  0
 40 38  2  0
 40 39  1  0
 39 41  1  0
  6 42  1  6
  7 43  1  0
  7 44  1  0
  8 45  1  0
  8 46  1  0
 12 47  1  0
 12 48  1  0
 15 49  1  0
 17 50  1  0
 18 51  1  0
 21 52  1  0
 24 53  1  0
 24 54  1  0
 25 55  1  0
 27 56  1  0
 28 57  1  0
 29 58  1  0
 30 59  1  0
 32 60  1  0
 34 61  1  0
 38 62  1  0
 41 63  1  0
 41 64  1  0
M  CHG  3   5  -1  16   1  19  -1
M  END
>  <EmbedRMS>  (338) 
0.08994717399697459

$$$$

     RDKit          3D

 64 67  0  0  0  0  0  0  0  0999 V2000
   10.2863   43.7710   33.8102 C   0  0  0  0  0  0  0  0  0  0  0  0
   11.4101   43.5818   34.3619 O   0  0  0  0  0  0  0  0  0  0  0  0
    9.3669   42.7308   33.7022 O   0  0  0  0  0  0  0  0  0  0  0  0
    9.8847   41.2330   34.2845 P   0  0  0  0  0  5  0  0  0  0  0  0
   10.3648   41.4676   35.8752 O   0  0  0  0  0  1  0  0  0  0  0  0
    9.9611   45.1120   33.2467 C   0  0  2  0  0  0  0  0  0  0  0  0
   11.0651   46.0482   33.4748 N   0  0  0  0  0  0  0  0  0  0  0  0
    8.6648   45.6570   33.8689 C   0  0  0  0  0  0  0  0  0  0  0  0
    8.2711   46.9560   33.2373 C   0  0  0  0  0  0  0  0  0  0  0  0
    7.7236   46.9536   31.9517 O   0  0  0  0  0  0  0  0  0  0  0  0
    8.4655   48.0396   33.8530 O   0  0  0  0  0  0  0  0  0  0  0  0
    7.3568   48.1488   31.2672 C   0  0  0  0  0  0  0  0  0  0  0  0
    6.8467   47.8409   29.8772 C   0  0  0  0  0  0  0  0  0  0  0  0
    5.9212   48.6953   29.2186 C   0  0  0  0  0  0  0  0  0  0  0  0
    7.3215   46.6991   29.2009 C   0  0  0  0  0  0  0  0  0  0  0  0
    5.4754   49.9303   29.8062 N   0  0  0  0  0  4  0  0  0  0  0  0
    5.4338   48.3332   27.9506 C   0  0  0  0  0  0  0  0  0  0  0  0
    6.8396   46.3690   27.9336 C   0  0  0  0  0  0  0  0  0  0  0  0
    4.2135   50.4050   29.5312 O   0  0  0  0  0  1  0  0  0  0  0  0
    6.2815   50.6763   30.3994 O   0  0  0  0  0  0  0  0  0  0  0  0
    5.8887   47.1775   27.3150 C   0  0  0  0  0  0  0  0  0  0  0  0
    8.8073   40.1902   34.2075 O   0  0  0  0  0  0  0  0  0  0  0  0
   11.2377   40.7904   33.3696 O   0  0  0  0  0  0  0  0  0  0  0  0
   10.9186   40.6905   31.9960 C   0  0  0  0  0  0  0  0  0  0  0  0
   11.5174   39.3824   31.4411 C   0  0  0  0  0  0  0  0  0  0  0  0
   12.7494   39.0893   32.0756 O   0  0  0  0  0  0  0  0  0  0  0  0
   10.6036   38.1899   31.6659 C   0  0  0  0  0  0  0  0  0  0  0  0
   12.9401   37.6834   32.0276 C   0  0  0  0  0  0  0  0  0  0  0  0
    9.6376   38.0785   30.6474 O   0  0  0  0  0  0  0  0  0  0  0  0
   11.5803   37.0204   31.6937 C   0  0  0  0  0  0  0  0  0  0  0  0
   13.4902   37.2177   33.3237 N   0  0  0  0  0  0  0  0  0  0  0  0
   11.6118   36.3193   30.4680 O   0  0  0  0  0  0  0  0  0  0  0  0
   14.4759   36.3271   33.5731 C   0  0  0  0  0  0  0  0  0  0  0  0
   13.1176   37.6317   34.5688 C   0  0  0  0  0  0  0  0  0  0  0  0
   15.2064   35.6141   32.6742 N   0  0  0  0  0  0  0  0  0  0  0  0
   14.6729   36.2274   34.9184 C   0  0  0  0  0  0  0  0  0  0  0  0
   13.8221   37.0457   35.5783 N   0  0  0  0  0  0  0  0  0  0  0  0
   16.1637   34.7597   33.1549 C   0  0  0  0  0  0  0  0  0  0  0  0
   15.6514   35.3493   35.4132 C   0  0  0  0  0  0  0  0  0  0  0  0
   16.3791   34.6312   34.5044 N   0  0  0  0  0  0  0  0  0  0  0  0
   15.9001   35.1935   36.8091 N   0  0  0  0  0  0  0  0  0  0  0  0
    9.8121   44.9934   32.1503 H   0  0  0  0  0  0  0  0  0  0  0  0
   11.2743   46.1187   34.4982 H   0  0  0  0  0  0  0  0  0  0  0  0
   11.9219   45.7028   32.9831 H   0  0  0  0  0  0  0  0  0  0  0  0
    7.8366   44.9322   33.7119 H   0  0  0  0  0  0  0  0  0  0  0  0
    8.7942   45.7927   34.9658 H   0  0  0  0  0  0  0  0  0  0  0  0
    8.2404   48.8176   31.1846 H   0  0  0  0  0  0  0  0  0  0  0  0
    6.5667   48.6543   31.8625 H   0  0  0  0  0  0  0  0  0  0  0  0
    8.0608   46.0519   29.6561 H   0  0  0  0  0  0  0  0  0  0  0  0
    4.7186   48.9642   27.4384 H   0  0  0  0  0  0  0  0  0  0  0  0
    7.2031   45.4819   27.4311 H   0  0  0  0  0  0  0  0  0  0  0  0
    5.5144   46.9172   26.3333 H   0  0  0  0  0  0  0  0  0  0  0  0
    9.8308   40.7398   31.7557 H   0  0  0  0  0  0  0  0  0  0  0  0
   11.3997   41.5455   31.4747 H   0  0  0  0  0  0  0  0  0  0  0  0
   11.6989   39.5091   30.3489 H   0  0  0  0  0  0  0  0  0  0  0  0
   10.1130   38.2588   32.6663 H   0  0  0  0  0  0  0  0  0  0  0  0
   13.6800   37.4628   31.2265 H   0  0  0  0  0  0  0  0  0  0  0  0
    8.8953   38.6909   30.8890 H   0  0  0  0  0  0  0  0  0  0  0  0
   11.2830   36.3060   32.4929 H   0  0  0  0  0  0  0  0  0  0  0  0
   11.8859   36.9589   29.7593 H   0  0  0  0  0  0  0  0  0  0  0  0
   12.3360   38.3600   34.7441 H   0  0  0  0  0  0  0  0  0  0  0  0
   16.7572   34.1793   32.4621 H   0  0  0  0  0  0  0  0  0  0  0  0
   16.6362   34.5318   37.1416 H   0  0  0  0  0  0  0  0  0  0  0  0
   15.3528   35.7357   37.5140 H   0  0  0  0  0  0  0  0  0  0  0  0
  1  2  2  0
  1  3  1  0
  3  4  1  0
  4  5  1  0
  6  1  1  0
  7  6  1  0
  6  8  1  0
  8  9  1  0
  9 10  1  0
  9 11  2  0
 10 12  1  0
 12 13  1  0
 13 14  2  0
 15 13  1  0
 14 16  1  0
 14 17  1  0
 18 15  2  0
 16 19  1  0
 16 20  2  0
 17 21  2  0
 21 18  1  0
  4 22  2  0
  4 23  1  0
 24 23  1  0
 24 25  1  0
 25 26  1  0
 25 27  1  0
 26 28  1  0
 27 29  1  0
 27 30  1  0
 30 28  1  0
 28 31  1  0
 30 32  1  0
 33 31  1  0
 34 31  1  0
 35 33  2  0
 33 36  1  0
 37 34  2  0
 38 35  1  0
 36 39  2  0
 36 37  1  0
 40 38  2  0
 40 39  1  0
 39 41  1  0
  6 42  1  6
  7 43  1  0
  7 44  1  0
  8 45  1  0
  8 46  1  0
 12 47  1  0
 12 48  1  0
 15 49  1  0
 17 50  1  0
 18 51  1  0
 21 52  1  0
 24 53  1  0
 24 54  1  0
 25 55  1  0
 27 56  1  0
 28 57  1  0
 29 58  1  0
 30 59  1  0
 32 60  1  0
 34 61  1  0
 38 62  1  0
 41 63  1  0
 41 64  1  0
M  CHG  3   5  -1  16   1  19  -1
M  END
>  <EmbedRMS>  (339) 
0.0888387558150041

$$$$

     RDKit          3D

 64 67  0  0  0  0  0  0  0  0999 V2000
   10.2802   43.7755   33.8092 C   0  0  0  0  0  0  0  0  0  0  0  0
   11.4063   43.5907   34.3583 O   0  0  0  0  0  0  0  0  0  0  0  0
    9.3671   42.7297   33.6988 O   0  0  0  0  0  0  0  0  0  0  0  0
    9.8859   41.2341   34.2844 P   0  0  0  0  0  5  0  0  0  0  0  0
   10.3658   41.4710   35.8747 O   0  0  0  0  0  1  0  0  0  0  0  0
    9.9506   45.1170   33.2495 C   0  0  2  0  0  0  0  0  0  0  0  0
   11.0768   46.0241   33.4781 N   0  0  0  0  0  0  0  0  0  0  0  0
    8.6604   45.6939   33.8735 C   0  0  0  0  0  0  0  0  0  0  0  0
    7.4404   44.9381   33.4429 C   0  0  0  0  0  0  0  0  0  0  0  0
    7.0929   44.9098   32.0881 O   0  0  0  0  0  0  0  0  0  0  0  0
    6.7384   44.3396   34.3027 O   0  0  0  0  0  0  0  0  0  0  0  0
    6.0016   44.1533   31.5688 C   0  0  0  0  0  0  0  0  0  0  0  0
    6.3306   42.6786   31.5501 C   0  0  0  0  0  0  0  0  0  0  0  0
    7.1360   42.0931   30.5351 C   0  0  0  0  0  0  0  0  0  0  0  0
    5.7880   41.8567   32.5547 C   0  0  0  0  0  0  0  0  0  0  0  0
    7.7468   42.8769   29.4934 N   0  0  0  0  0  4  0  0  0  0  0  0
    7.3272   40.6999   30.5340 C   0  0  0  0  0  0  0  0  0  0  0  0
    6.0124   40.4800   32.5481 C   0  0  0  0  0  0  0  0  0  0  0  0
    7.9920   42.3116   28.2631 O   0  0  0  0  0  1  0  0  0  0  0  0
    8.2135   44.0086   29.7348 O   0  0  0  0  0  0  0  0  0  0  0  0
    6.7753   39.9019   31.5365 C   0  0  0  0  0  0  0  0  0  0  0  0
    8.8098   40.1900   34.2099 O   0  0  0  0  0  0  0  0  0  0  0  0
   11.2384   40.7907   33.3697 O   0  0  0  0  0  0  0  0  0  0  0  0
   10.9178   40.6910   31.9967 C   0  0  0  0  0  0  0  0  0  0  0  0
   11.5271   39.3905   31.4375 C   0  0  0  0  0  0  0  0  0  0  0  0
   12.7509   39.0917   32.0836 O   0  0  0  0  0  0  0  0  0  0  0  0
   10.6117   38.1924   31.6450 C   0  0  0  0  0  0  0  0  0  0  0  0
   12.9425   37.6853   32.0295 C   0  0  0  0  0  0  0  0  0  0  0  0
    9.6079   38.0846   30.6592 O   0  0  0  0  0  0  0  0  0  0  0  0
   11.5838   37.0193   31.6885 C   0  0  0  0  0  0  0  0  0  0  0  0
   13.4896   37.2164   33.3250 N   0  0  0  0  0  0  0  0  0  0  0  0
   11.6195   36.3066   30.4699 O   0  0  0  0  0  0  0  0  0  0  0  0
   14.4757   36.3264   33.5738 C   0  0  0  0  0  0  0  0  0  0  0  0
   13.1173   37.6307   34.5699 C   0  0  0  0  0  0  0  0  0  0  0  0
   15.2064   35.6140   32.6745 N   0  0  0  0  0  0  0  0  0  0  0  0
   14.6730   36.2268   34.9190 C   0  0  0  0  0  0  0  0  0  0  0  0
   13.8223   37.0450   35.5792 N   0  0  0  0  0  0  0  0  0  0  0  0
   16.1639   34.7597   33.1549 C   0  0  0  0  0  0  0  0  0  0  0  0
   15.6517   35.3489   35.4135 C   0  0  0  0  0  0  0  0  0  0  0  0
   16.3795   34.6310   34.5044 N   0  0  0  0  0  0  0  0  0  0  0  0
   15.9006   35.1930   36.8093 N   0  0  0  0  0  0  0  0  0  0  0  0
    9.8117   45.0033   32.1512 H   0  0  0  0  0  0  0  0  0  0  0  0
   11.1229   46.2795   34.4925 H   0  0  0  0  0  0  0  0  0  0  0  0
   10.9080   46.9075   32.9438 H   0  0  0  0  0  0  0  0  0  0  0  0
    8.5346   46.7495   33.5505 H   0  0  0  0  0  0  0  0  0  0  0  0
    8.7402   45.6903   34.9834 H   0  0  0  0  0  0  0  0  0  0  0  0
    5.7823   44.4972   30.5364 H   0  0  0  0  0  0  0  0  0  0  0  0
    5.0846   44.3578   32.1643 H   0  0  0  0  0  0  0  0  0  0  0  0
    5.1745   42.2802   33.3402 H   0  0  0  0  0  0  0  0  0  0  0  0
    7.9289   40.2308   29.7662 H   0  0  0  0  0  0  0  0  0  0  0  0
    5.5873   39.8589   33.3259 H   0  0  0  0  0  0  0  0  0  0  0  0
    6.9442   38.8329   31.5316 H   0  0  0  0  0  0  0  0  0  0  0  0
   11.3848   41.5538   31.4755 H   0  0  0  0  0  0  0  0  0  0  0  0
    9.8298   40.7218   31.7610 H   0  0  0  0  0  0  0  0  0  0  0  0
   11.7317   39.5352   30.3522 H   0  0  0  0  0  0  0  0  0  0  0  0
   10.1192   38.2697   32.6402 H   0  0  0  0  0  0  0  0  0  0  0  0
   13.6875   37.4703   31.2318 H   0  0  0  0  0  0  0  0  0  0  0  0
   10.0253   38.1837   29.7650 H   0  0  0  0  0  0  0  0  0  0  0  0
   11.2785   36.3135   32.4923 H   0  0  0  0  0  0  0  0  0  0  0  0
   11.9844   36.9109   29.7716 H   0  0  0  0  0  0  0  0  0  0  0  0
   12.3360   38.3593   34.7452 H   0  0  0  0  0  0  0  0  0  0  0  0
   16.7577   34.1798   32.4619 H   0  0  0  0  0  0  0  0  0  0  0  0
   16.6368   34.5315   37.1417 H   0  0  0  0  0  0  0  0  0  0  0  0
   15.3533   35.7350   37.5143 H   0  0  0  0  0  0  0  0  0  0  0  0
  1  2  2  0
  1  3  1  0
  3  4  1  0
  4  5  1  0
  6  1  1  0
  7  6  1  0
  6  8  1  0
  8  9  1  0
  9 10  1  0
  9 11  2  0
 10 12  1  0
 12 13  1  0
 13 14  2  0
 15 13  1  0
 14 16  1  0
 14 17  1  0
 18 15  2  0
 16 19  1  0
 16 20  2  0
 17 21  2  0
 21 18  1  0
  4 22  2  0
  4 23  1  0
 24 23  1  0
 24 25  1  0
 25 26  1  0
 25 27  1  0
 26 28  1  0
 27 29  1  0
 27 30  1  0
 30 28  1  0
 28 31  1  0
 30 32  1  0
 33 31  1  0
 34 31  1  0
 35 33  2  0
 33 36  1  0
 37 34  2  0
 38 35  1  0
 36 39  2  0
 36 37  1  0
 40 38  2  0
 40 39  1  0
 39 41  1  0
  6 42  1  6
  7 43  1  0
  7 44  1  0
  8 45  1  0
  8 46  1  0
 12 47  1  0
 12 48  1  0
 15 49  1  0
 17 50  1  0
 18 51  1  0
 21 52  1  0
 24 53  1  0
 24 54  1  0
 25 55  1  0
 27 56  1  0
 28 57  1  0
 29 58  1  0
 30 59  1  0
 32 60  1  0
 34 61  1  0
 38 62  1  0
 41 63  1  0
 41 64  1  0
M  CHG  3   5  -1  16   1  19  -1
M  END
>  <EmbedRMS>  (340) 
0.08687728968979427

$$$$

     RDKit          3D

 64 67  0  0  0  0  0  0  0  0999 V2000
   10.2822   43.7752   33.8088 C   0  0  0  0  0  0  0  0  0  0  0  0
   11.4052   43.5918   34.3646 O   0  0  0  0  0  0  0  0  0  0  0  0
    9.3711   42.7286   33.6948 O   0  0  0  0  0  0  0  0  0  0  0  0
    9.8867   41.2335   34.2832 P   0  0  0  0  0  5  0  0  0  0  0  0
   10.3660   41.4707   35.8738 O   0  0  0  0  0  1  0  0  0  0  0  0
    9.9443   45.1227   33.2629 C   0  0  2  0  0  0  0  0  0  0  0  0
   11.0794   46.0243   33.4669 N   0  0  0  0  0  0  0  0  0  0  0  0
    8.6964   45.7028   33.9617 C   0  0  0  0  0  0  0  0  0  0  0  0
    7.4507   44.9468   33.6131 C   0  0  0  0  0  0  0  0  0  0  0  0
    6.9135   44.0438   34.5373 O   0  0  0  0  0  0  0  0  0  0  0  0
    6.9165   45.1069   32.4816 O   0  0  0  0  0  0  0  0  0  0  0  0
    5.7533   43.2562   34.2780 C   0  0  0  0  0  0  0  0  0  0  0  0
    4.5148   44.1217   34.2346 C   0  0  0  0  0  0  0  0  0  0  0  0
    4.1620   44.9961   35.2995 C   0  0  0  0  0  0  0  0  0  0  0  0
    3.7105   44.0861   33.0805 C   0  0  0  0  0  0  0  0  0  0  0  0
    4.9307   45.0730   36.5143 N   0  0  0  0  0  4  0  0  0  0  0  0
    3.0366   45.8274   35.1566 C   0  0  0  0  0  0  0  0  0  0  0  0
    2.5891   44.9085   32.9675 C   0  0  0  0  0  0  0  0  0  0  0  0
    4.9748   46.2502   37.2255 O   0  0  0  0  0  1  0  0  0  0  0  0
    5.4271   44.0474   37.0231 O   0  0  0  0  0  0  0  0  0  0  0  0
    2.2556   45.7807   34.0013 C   0  0  0  0  0  0  0  0  0  0  0  0
    8.8078   40.1919   34.2081 O   0  0  0  0  0  0  0  0  0  0  0  0
   11.2378   40.7891   33.3673 O   0  0  0  0  0  0  0  0  0  0  0  0
   10.9144   40.6857   31.9946 C   0  0  0  0  0  0  0  0  0  0  0  0
   11.5172   39.3795   31.4406 C   0  0  0  0  0  0  0  0  0  0  0  0
   12.7491   39.0883   32.0758 O   0  0  0  0  0  0  0  0  0  0  0  0
   10.6052   38.1876   31.6658 C   0  0  0  0  0  0  0  0  0  0  0  0
   12.9412   37.6826   32.0277 C   0  0  0  0  0  0  0  0  0  0  0  0
    9.6358   38.0931   30.6503 O   0  0  0  0  0  0  0  0  0  0  0  0
   11.5826   37.0178   31.6936 C   0  0  0  0  0  0  0  0  0  0  0  0
   13.4909   37.2176   33.3239 N   0  0  0  0  0  0  0  0  0  0  0  0
   11.6139   36.3179   30.4675 O   0  0  0  0  0  0  0  0  0  0  0  0
   14.4763   36.3269   33.5733 C   0  0  0  0  0  0  0  0  0  0  0  0
   13.1179   37.6316   34.5688 C   0  0  0  0  0  0  0  0  0  0  0  0
   15.2067   35.6139   32.6744 N   0  0  0  0  0  0  0  0  0  0  0  0
   14.6731   36.2272   34.9186 C   0  0  0  0  0  0  0  0  0  0  0  0
   13.8223   37.0456   35.5785 N   0  0  0  0  0  0  0  0  0  0  0  0
   16.1639   34.7594   33.1551 C   0  0  0  0  0  0  0  0  0  0  0  0
   15.6515   35.3491   35.4134 C   0  0  0  0  0  0  0  0  0  0  0  0
   16.3793   34.6310   34.5046 N   0  0  0  0  0  0  0  0  0  0  0  0
   15.9002   35.1933   36.8093 N   0  0  0  0  0  0  0  0  0  0  0  0
    9.7468   45.0266   32.1708 H   0  0  0  0  0  0  0  0  0  0  0  0
   11.8813   45.6825   32.8873 H   0  0  0  0  0  0  0  0  0  0  0  0
   10.8354   46.9617   33.0715 H   0  0  0  0  0  0  0  0  0  0  0  0
    8.5520   46.7610   33.6530 H   0  0  0  0  0  0  0  0  0  0  0  0
    8.8404   45.6962   35.0646 H   0  0  0  0  0  0  0  0  0  0  0  0
    5.8987   42.6964   33.3278 H   0  0  0  0  0  0  0  0  0  0  0  0
    5.6418   42.4936   35.0757 H   0  0  0  0  0  0  0  0  0  0  0  0
    3.9575   43.4277   32.2568 H   0  0  0  0  0  0  0  0  0  0  0  0
    2.7517   46.5047   35.9517 H   0  0  0  0  0  0  0  0  0  0  0  0
    1.9812   44.8740   32.0727 H   0  0  0  0  0  0  0  0  0  0  0  0
    1.3876   46.4206   33.9091 H   0  0  0  0  0  0  0  0  0  0  0  0
   11.3869   41.5431   31.4694 H   0  0  0  0  0  0  0  0  0  0  0  0
    9.8243   40.7212   31.7578 H   0  0  0  0  0  0  0  0  0  0  0  0
   11.6995   39.5064   30.3484 H   0  0  0  0  0  0  0  0  0  0  0  0
   10.1122   38.2724   32.6631 H   0  0  0  0  0  0  0  0  0  0  0  0
   13.6816   37.4627   31.2268 H   0  0  0  0  0  0  0  0  0  0  0  0
    9.0034   37.3832   30.9352 H   0  0  0  0  0  0  0  0  0  0  0  0
   11.2845   36.3040   32.4928 H   0  0  0  0  0  0  0  0  0  0  0  0
   11.8848   36.9589   29.7588 H   0  0  0  0  0  0  0  0  0  0  0  0
   12.3363   38.3598   34.7440 H   0  0  0  0  0  0  0  0  0  0  0  0
   16.7575   34.1790   32.4623 H   0  0  0  0  0  0  0  0  0  0  0  0
   15.3529   35.7356   37.5141 H   0  0  0  0  0  0  0  0  0  0  0  0
   16.6363   34.5317   37.1418 H   0  0  0  0  0  0  0  0  0  0  0  0
  1  2  2  0
  1  3  1  0
  3  4  1  0
  4  5  1  0
  6  1  1  0
  7  6  1  0
  6  8  1  0
  8  9  1  0
  9 10  1  0
  9 11  2  0
 10 12  1  0
 12 13  1  0
 13 14  2  0
 15 13  1  0
 14 16  1  0
 14 17  1  0
 18 15  2  0
 16 19  1  0
 16 20  2  0
 17 21  2  0
 21 18  1  0
  4 22  2  0
  4 23  1  0
 24 23  1  0
 24 25  1  0
 25 26  1  0
 25 27  1  0
 26 28  1  0
 27 29  1  0
 27 30  1  0
 30 28  1  0
 28 31  1  0
 30 32  1  0
 33 31  1  0
 34 31  1  0
 35 33  2  0
 33 36  1  0
 37 34  2  0
 38 35  1  0
 36 39  2  0
 36 37  1  0
 40 38  2  0
 40 39  1  0
 39 41  1  0
  6 42  1  6
  7 43  1  0
  7 44  1  0
  8 45  1  0
  8 46  1  0
 12 47  1  0
 12 48  1  0
 15 49  1  0
 17 50  1  0
 18 51  1  0
 21 52  1  0
 24 53  1  0
 24 54  1  0
 25 55  1  0
 27 56  1  0
 28 57  1  0
 29 58  1  0
 30 59  1  0
 32 60  1  0
 34 61  1  0
 38 62  1  0
 41 63  1  0
 41 64  1  0
M  CHG  3   5  -1  16   1  19  -1
M  END
>  <EmbedRMS>  (341) 
0.08838650113425553

$$$$

     RDKit          3D

 64 67  0  0  0  0  0  0  0  0999 V2000
   10.2863   43.7710   33.8098 C   0  0  0  0  0  0  0  0  0  0  0  0
   11.4100   43.5819   34.3617 O   0  0  0  0  0  0  0  0  0  0  0  0
    9.3672   42.7306   33.7015 O   0  0  0  0  0  0  0  0  0  0  0  0
    9.8851   41.2327   34.2837 P   0  0  0  0  0  5  0  0  0  0  0  0
   10.3652   41.4675   35.8745 O   0  0  0  0  0  1  0  0  0  0  0  0
    9.9606   45.1125   33.2474 C   0  0  2  0  0  0  0  0  0  0  0  0
   11.0656   46.0476   33.4747 N   0  0  0  0  0  0  0  0  0  0  0  0
    8.6652   45.6572   33.8723 C   0  0  0  0  0  0  0  0  0  0  0  0
    8.2705   46.9598   33.2484 C   0  0  0  0  0  0  0  0  0  0  0  0
    8.7291   48.1563   33.8064 O   0  0  0  0  0  0  0  0  0  0  0  0
    7.5610   46.9659   32.2054 O   0  0  0  0  0  0  0  0  0  0  0  0
    8.4029   49.4316   33.2645 C   0  0  0  0  0  0  0  0  0  0  0  0
    9.0692   50.5074   34.0815 C   0  0  0  0  0  0  0  0  0  0  0  0
   10.4030   50.9331   33.8355 C   0  0  0  0  0  0  0  0  0  0  0  0
    8.3402   51.1004   35.1280 C   0  0  0  0  0  0  0  0  0  0  0  0
   11.2220   50.3321   32.8159 N   0  0  0  0  0  4  0  0  0  0  0  0
   10.9393   51.9791   34.6076 C   0  0  0  0  0  0  0  0  0  0  0  0
    8.8984   52.1249   35.8934 C   0  0  0  0  0  0  0  0  0  0  0  0
   12.1976   51.0757   32.1925 O   0  0  0  0  0  1  0  0  0  0  0  0
   11.1850   49.1016   32.6118 O   0  0  0  0  0  0  0  0  0  0  0  0
   10.1925   52.5686   35.6287 C   0  0  0  0  0  0  0  0  0  0  0  0
    8.8075   40.1901   34.2072 O   0  0  0  0  0  0  0  0  0  0  0  0
   11.2381   40.7897   33.3686 O   0  0  0  0  0  0  0  0  0  0  0  0
   10.9194   40.6894   31.9948 C   0  0  0  0  0  0  0  0  0  0  0  0
   11.5171   39.3800   31.4396 C   0  0  0  0  0  0  0  0  0  0  0  0
   12.7479   39.0861   32.0733 O   0  0  0  0  0  0  0  0  0  0  0  0
   10.6031   38.1891   31.6666 C   0  0  0  0  0  0  0  0  0  0  0  0
   12.9335   37.6796   32.0279 C   0  0  0  0  0  0  0  0  0  0  0  0
    9.6397   38.0777   30.6456 O   0  0  0  0  0  0  0  0  0  0  0  0
   11.5739   37.0154   31.7057 C   0  0  0  0  0  0  0  0  0  0  0  0
   13.4903   37.2178   33.3231 N   0  0  0  0  0  0  0  0  0  0  0  0
   11.6211   36.3376   30.4695 O   0  0  0  0  0  0  0  0  0  0  0  0
   14.4761   36.3273   33.5725 C   0  0  0  0  0  0  0  0  0  0  0  0
   13.1179   37.6316   34.5684 C   0  0  0  0  0  0  0  0  0  0  0  0
   15.2063   35.6139   32.6737 N   0  0  0  0  0  0  0  0  0  0  0  0
   14.6733   36.2277   34.9179 C   0  0  0  0  0  0  0  0  0  0  0  0
   13.8225   37.0459   35.5779 N   0  0  0  0  0  0  0  0  0  0  0  0
   16.1636   34.7594   33.1546 C   0  0  0  0  0  0  0  0  0  0  0  0
   15.6515   35.3494   35.4129 C   0  0  0  0  0  0  0  0  0  0  0  0
   16.3791   34.6311   34.5041 N   0  0  0  0  0  0  0  0  0  0  0  0
   15.9001   35.1935   36.8088 N   0  0  0  0  0  0  0  0  0  0  0  0
    9.8092   44.9956   32.1512 H   0  0  0  0  0  0  0  0  0  0  0  0
   11.2751   46.1195   34.4980 H   0  0  0  0  0  0  0  0  0  0  0  0
   11.9221   45.7020   32.9826 H   0  0  0  0  0  0  0  0  0  0  0  0
    8.8010   45.8015   34.9666 H   0  0  0  0  0  0  0  0  0  0  0  0
    7.8378   44.9280   33.7276 H   0  0  0  0  0  0  0  0  0  0  0  0
    7.2986   49.5649   33.2766 H   0  0  0  0  0  0  0  0  0  0  0  0
    8.7232   49.4941   32.2024 H   0  0  0  0  0  0  0  0  0  0  0  0
    7.3300   50.7758   35.3462 H   0  0  0  0  0  0  0  0  0  0  0  0
   11.9498   52.3262   34.4330 H   0  0  0  0  0  0  0  0  0  0  0  0
    8.3243   52.5785   36.6910 H   0  0  0  0  0  0  0  0  0  0  0  0
   10.6220   53.3658   36.2217 H   0  0  0  0  0  0  0  0  0  0  0  0
    9.8317   40.7398   31.7544 H   0  0  0  0  0  0  0  0  0  0  0  0
   11.4014   41.5437   31.4731 H   0  0  0  0  0  0  0  0  0  0  0  0
   11.6983   39.5042   30.3470 H   0  0  0  0  0  0  0  0  0  0  0  0
   10.1090   38.2631   32.6649 H   0  0  0  0  0  0  0  0  0  0  0  0
   13.6656   37.4540   31.2207 H   0  0  0  0  0  0  0  0  0  0  0  0
    8.8965   38.6899   30.8852 H   0  0  0  0  0  0  0  0  0  0  0  0
   11.2846   36.3060   32.5175 H   0  0  0  0  0  0  0  0  0  0  0  0
   10.8524   35.7094   30.4590 H   0  0  0  0  0  0  0  0  0  0  0  0
   12.3353   38.3588   34.7439 H   0  0  0  0  0  0  0  0  0  0  0  0
   16.7570   34.1788   32.4619 H   0  0  0  0  0  0  0  0  0  0  0  0
   15.3529   35.7359   37.5136 H   0  0  0  0  0  0  0  0  0  0  0  0
   16.6360   34.5317   37.1413 H   0  0  0  0  0  0  0  0  0  0  0  0
  1  2  2  0
  1  3  1  0
  3  4  1  0
  4  5  1  0
  6  1  1  0
  7  6  1  0
  6  8  1  0
  8  9  1  0
  9 10  1  0
  9 11  2  0
 10 12  1  0
 12 13  1  0
 13 14  2  0
 15 13  1  0
 14 16  1  0
 14 17  1  0
 18 15  2  0
 16 19  1  0
 16 20  2  0
 17 21  2  0
 21 18  1  0
  4 22  2  0
  4 23  1  0
 24 23  1  0
 24 25  1  0
 25 26  1  0
 25 27  1  0
 26 28  1  0
 27 29  1  0
 27 30  1  0
 30 28  1  0
 28 31  1  0
 30 32  1  0
 33 31  1  0
 34 31  1  0
 35 33  2  0
 33 36  1  0
 37 34  2  0
 38 35  1  0
 36 39  2  0
 36 37  1  0
 40 38  2  0
 40 39  1  0
 39 41  1  0
  6 42  1  6
  7 43  1  0
  7 44  1  0
  8 45  1  0
  8 46  1  0
 12 47  1  0
 12 48  1  0
 15 49  1  0
 17 50  1  0
 18 51  1  0
 21 52  1  0
 24 53  1  0
 24 54  1  0
 25 55  1  0
 27 56  1  0
 28 57  1  0
 29 58  1  0
 30 59  1  0
 32 60  1  0
 34 61  1  0
 38 62  1  0
 41 63  1  0
 41 64  1  0
M  CHG  3   5  -1  16   1  19  -1
M  END
>  <EmbedRMS>  (342) 
0.08995269608624498

$$$$

     RDKit          3D

 64 67  0  0  0  0  0  0  0  0999 V2000
   10.2850   43.7724   33.8067 C   0  0  0  0  0  0  0  0  0  0  0  0
   11.4106   43.5874   34.3562 O   0  0  0  0  0  0  0  0  0  0  0  0
    9.3667   42.7311   33.7012 O   0  0  0  0  0  0  0  0  0  0  0  0
    9.8856   41.2339   34.2841 P   0  0  0  0  0  5  0  0  0  0  0  0
   10.3657   41.4695   35.8747 O   0  0  0  0  0  1  0  0  0  0  0  0
    9.9581   45.1107   33.2441 C   0  0  2  0  0  0  0  0  0  0  0  0
   11.0675   46.0365   33.4847 N   0  0  0  0  0  0  0  0  0  0  0  0
    8.6201   45.6579   33.7909 C   0  0  0  0  0  0  0  0  0  0  0  0
    8.6120   45.8067   35.2836 C   0  0  0  0  0  0  0  0  0  0  0  0
    8.9620   47.0353   35.8554 O   0  0  0  0  0  0  0  0  0  0  0  0
    8.3139   44.8197   36.0106 O   0  0  0  0  0  0  0  0  0  0  0  0
    8.9928   47.2590   37.2649 C   0  0  0  0  0  0  0  0  0  0  0  0
    7.5994   47.2776   37.8586 C   0  0  0  0  0  0  0  0  0  0  0  0
    7.3439   46.8272   39.1816 C   0  0  0  0  0  0  0  0  0  0  0  0
    6.5305   47.7780   37.0895 C   0  0  0  0  0  0  0  0  0  0  0  0
    8.4030   46.4093   40.0593 N   0  0  0  0  0  4  0  0  0  0  0  0
    6.0208   46.8029   39.6558 C   0  0  0  0  0  0  0  0  0  0  0  0
    5.2267   47.7642   37.5868 C   0  0  0  0  0  0  0  0  0  0  0  0
    8.1722   45.4245   40.9921 O   0  0  0  0  0  1  0  0  0  0  0  0
    9.4600   47.0695   40.1312 O   0  0  0  0  0  0  0  0  0  0  0  0
    4.9706   47.2659   38.8624 C   0  0  0  0  0  0  0  0  0  0  0  0
    8.8082   40.1910   34.2080 O   0  0  0  0  0  0  0  0  0  0  0  0
   11.2384   40.7903   33.3687 O   0  0  0  0  0  0  0  0  0  0  0  0
   10.9193   40.6895   31.9950 C   0  0  0  0  0  0  0  0  0  0  0  0
   11.5170   39.3801   31.4398 C   0  0  0  0  0  0  0  0  0  0  0  0
   12.7478   39.0862   32.0734 O   0  0  0  0  0  0  0  0  0  0  0  0
   10.6031   38.1891   31.6667 C   0  0  0  0  0  0  0  0  0  0  0  0
   12.9335   37.6797   32.0280 C   0  0  0  0  0  0  0  0  0  0  0  0
    9.6397   38.0777   30.6456 O   0  0  0  0  0  0  0  0  0  0  0  0
   11.5739   37.0154   31.7057 C   0  0  0  0  0  0  0  0  0  0  0  0
   13.4903   37.2178   33.3231 N   0  0  0  0  0  0  0  0  0  0  0  0
   11.6211   36.3376   30.4695 O   0  0  0  0  0  0  0  0  0  0  0  0
   14.4761   36.3273   33.5725 C   0  0  0  0  0  0  0  0  0  0  0  0
   13.1179   37.6317   34.5684 C   0  0  0  0  0  0  0  0  0  0  0  0
   15.2063   35.6139   32.6737 N   0  0  0  0  0  0  0  0  0  0  0  0
   14.6733   36.2277   34.9180 C   0  0  0  0  0  0  0  0  0  0  0  0
   13.8225   37.0459   35.5779 N   0  0  0  0  0  0  0  0  0  0  0  0
   16.1636   34.7594   33.1546 C   0  0  0  0  0  0  0  0  0  0  0  0
   15.6515   35.3494   35.4129 C   0  0  0  0  0  0  0  0  0  0  0  0
   16.3791   34.6311   34.5041 N   0  0  0  0  0  0  0  0  0  0  0  0
   15.9001   35.1935   36.8088 N   0  0  0  0  0  0  0  0  0  0  0  0
    9.8479   44.9839   32.1447 H   0  0  0  0  0  0  0  0  0  0  0  0
   11.1600   46.2305   34.5084 H   0  0  0  0  0  0  0  0  0  0  0  0
   10.8536   46.9455   33.0134 H   0  0  0  0  0  0  0  0  0  0  0  0
    7.7914   44.9807   33.4885 H   0  0  0  0  0  0  0  0  0  0  0  0
    8.4113   46.6466   33.3285 H   0  0  0  0  0  0  0  0  0  0  0  0
    9.6203   46.4681   37.7276 H   0  0  0  0  0  0  0  0  0  0  0  0
    9.4728   48.2407   37.4587 H   0  0  0  0  0  0  0  0  0  0  0  0
    6.7016   48.1676   36.0938 H   0  0  0  0  0  0  0  0  0  0  0  0
    5.8047   46.4506   40.6565 H   0  0  0  0  0  0  0  0  0  0  0  0
    4.4124   48.1379   36.9793 H   0  0  0  0  0  0  0  0  0  0  0  0
    3.9579   47.2533   39.2443 H   0  0  0  0  0  0  0  0  0  0  0  0
   11.4009   41.5437   31.4729 H   0  0  0  0  0  0  0  0  0  0  0  0
    9.8314   40.7396   31.7550 H   0  0  0  0  0  0  0  0  0  0  0  0
   11.6982   39.5043   30.3472 H   0  0  0  0  0  0  0  0  0  0  0  0
   10.1089   38.2631   32.6650 H   0  0  0  0  0  0  0  0  0  0  0  0
   13.6656   37.4542   31.2207 H   0  0  0  0  0  0  0  0  0  0  0  0
    8.8965   38.6899   30.8852 H   0  0  0  0  0  0  0  0  0  0  0  0
   11.2846   36.3060   32.5175 H   0  0  0  0  0  0  0  0  0  0  0  0
   10.8523   35.7095   30.4590 H   0  0  0  0  0  0  0  0  0  0  0  0
   12.3353   38.3588   34.7440 H   0  0  0  0  0  0  0  0  0  0  0  0
   16.7570   34.1788   32.4619 H   0  0  0  0  0  0  0  0  0  0  0  0
   16.6360   34.5317   37.1413 H   0  0  0  0  0  0  0  0  0  0  0  0
   15.3529   35.7359   37.5136 H   0  0  0  0  0  0  0  0  0  0  0  0
  1  2  2  0
  1  3  1  0
  3  4  1  0
  4  5  1  0
  6  1  1  0
  7  6  1  0
  6  8  1  0
  8  9  1  0
  9 10  1  0
  9 11  2  0
 10 12  1  0
 12 13  1  0
 13 14  2  0
 15 13  1  0
 14 16  1  0
 14 17  1  0
 18 15  2  0
 16 19  1  0
 16 20  2  0
 17 21  2  0
 21 18  1  0
  4 22  2  0
  4 23  1  0
 24 23  1  0
 24 25  1  0
 25 26  1  0
 25 27  1  0
 26 28  1  0
 27 29  1  0
 27 30  1  0
 30 28  1  0
 28 31  1  0
 30 32  1  0
 33 31  1  0
 34 31  1  0
 35 33  2  0
 33 36  1  0
 37 34  2  0
 38 35  1  0
 36 39  2  0
 36 37  1  0
 40 38  2  0
 40 39  1  0
 39 41  1  0
  6 42  1  6
  7 43  1  0
  7 44  1  0
  8 45  1  0
  8 46  1  0
 12 47  1  0
 12 48  1  0
 15 49  1  0
 17 50  1  0
 18 51  1  0
 21 52  1  0
 24 53  1  0
 24 54  1  0
 25 55  1  0
 27 56  1  0
 28 57  1  0
 29 58  1  0
 30 59  1  0
 32 60  1  0
 34 61  1  0
 38 62  1  0
 41 63  1  0
 41 64  1  0
M  CHG  3   5  -1  16   1  19  -1
M  END
>  <EmbedRMS>  (343) 
0.08932698528948738

$$$$

     RDKit          3D

 64 67  0  0  0  0  0  0  0  0999 V2000
   10.2873   43.7716   33.8029 C   0  0  0  0  0  0  0  0  0  0  0  0
   11.4093   43.5883   34.3605 O   0  0  0  0  0  0  0  0  0  0  0  0
    9.3680   42.7308   33.6995 O   0  0  0  0  0  0  0  0  0  0  0  0
    9.8852   41.2341   34.2846 P   0  0  0  0  0  5  0  0  0  0  0  0
   10.3657   41.4685   35.8743 O   0  0  0  0  0  1  0  0  0  0  0  0
    9.9535   45.1147   33.2522 C   0  0  2  0  0  0  0  0  0  0  0  0
   11.0695   46.0349   33.4786 N   0  0  0  0  0  0  0  0  0  0  0  0
    8.6564   45.6659   33.8808 C   0  0  0  0  0  0  0  0  0  0  0  0
    8.7955   45.9304   35.3519 C   0  0  0  0  0  0  0  0  0  0  0  0
    8.9728   44.8572   36.2289 O   0  0  0  0  0  0  0  0  0  0  0  0
    8.7596   47.1150   35.7838 O   0  0  0  0  0  0  0  0  0  0  0  0
    9.0844   45.0181   37.6378 C   0  0  0  0  0  0  0  0  0  0  0  0
    9.3990   43.6854   38.2639 C   0  0  0  0  0  0  0  0  0  0  0  0
    8.3886   42.7390   38.5805 C   0  0  0  0  0  0  0  0  0  0  0  0
   10.7447   43.3685   38.5236 C   0  0  0  0  0  0  0  0  0  0  0  0
    7.0003   42.9849   38.2913 N   0  0  0  0  0  4  0  0  0  0  0  0
    8.7554   41.5278   39.1961 C   0  0  0  0  0  0  0  0  0  0  0  0
   11.0880   42.1548   39.1206 C   0  0  0  0  0  0  0  0  0  0  0  0
    6.6250   43.5761   37.1074 O   0  0  0  0  0  1  0  0  0  0  0  0
    6.1140   42.5072   39.0296 O   0  0  0  0  0  0  0  0  0  0  0  0
   10.0947   41.2389   39.4617 C   0  0  0  0  0  0  0  0  0  0  0  0
    8.8076   40.1914   34.2086 O   0  0  0  0  0  0  0  0  0  0  0  0
   11.2378   40.7900   33.3700 O   0  0  0  0  0  0  0  0  0  0  0  0
   10.9186   40.6904   31.9964 C   0  0  0  0  0  0  0  0  0  0  0  0
   11.5175   39.3825   31.4413 C   0  0  0  0  0  0  0  0  0  0  0  0
   12.7495   39.0894   32.0755 O   0  0  0  0  0  0  0  0  0  0  0  0
   10.6037   38.1899   31.6661 C   0  0  0  0  0  0  0  0  0  0  0  0
   12.9402   37.6835   32.0276 C   0  0  0  0  0  0  0  0  0  0  0  0
    9.6377   38.0784   30.6476 O   0  0  0  0  0  0  0  0  0  0  0  0
   11.5805   37.0204   31.6938 C   0  0  0  0  0  0  0  0  0  0  0  0
   13.4903   37.2179   33.3237 N   0  0  0  0  0  0  0  0  0  0  0  0
   11.6116   36.3191   30.4683 O   0  0  0  0  0  0  0  0  0  0  0  0
   14.4757   36.3270   33.5731 C   0  0  0  0  0  0  0  0  0  0  0  0
   13.1179   37.6322   34.5688 C   0  0  0  0  0  0  0  0  0  0  0  0
   15.2065   35.6143   32.6742 N   0  0  0  0  0  0  0  0  0  0  0  0
   14.6727   36.2272   34.9184 C   0  0  0  0  0  0  0  0  0  0  0  0
   13.8222   37.0459   35.5784 N   0  0  0  0  0  0  0  0  0  0  0  0
   16.1638   34.7598   33.1549 C   0  0  0  0  0  0  0  0  0  0  0  0
   15.6511   35.3491   35.4132 C   0  0  0  0  0  0  0  0  0  0  0  0
   16.3790   34.6311   34.5043 N   0  0  0  0  0  0  0  0  0  0  0  0
   15.8998   35.1934   36.8090 N   0  0  0  0  0  0  0  0  0  0  0  0
    9.7881   45.0034   32.1568 H   0  0  0  0  0  0  0  0  0  0  0  0
   10.8062   46.9734   33.0987 H   0  0  0  0  0  0  0  0  0  0  0  0
   11.8822   45.7170   32.9006 H   0  0  0  0  0  0  0  0  0  0  0  0
    7.8243   44.9460   33.7232 H   0  0  0  0  0  0  0  0  0  0  0  0
    8.3712   46.6062   33.3597 H   0  0  0  0  0  0  0  0  0  0  0  0
    9.8905   45.7503   37.8654 H   0  0  0  0  0  0  0  0  0  0  0  0
    8.1402   45.4318   38.0521 H   0  0  0  0  0  0  0  0  0  0  0  0
   11.5327   44.0665   38.2677 H   0  0  0  0  0  0  0  0  0  0  0  0
    8.0017   40.7937   39.4519 H   0  0  0  0  0  0  0  0  0  0  0  0
   12.1268   41.9249   39.3197 H   0  0  0  0  0  0  0  0  0  0  0  0
   10.3634   40.2985   39.9255 H   0  0  0  0  0  0  0  0  0  0  0  0
    9.8307   40.7392   31.7564 H   0  0  0  0  0  0  0  0  0  0  0  0
   11.3993   41.5457   31.4752 H   0  0  0  0  0  0  0  0  0  0  0  0
   11.6988   39.5093   30.3490 H   0  0  0  0  0  0  0  0  0  0  0  0
   10.1132   38.2588   32.6666 H   0  0  0  0  0  0  0  0  0  0  0  0
   13.6801   37.4630   31.2265 H   0  0  0  0  0  0  0  0  0  0  0  0
    8.8953   38.6908   30.8893 H   0  0  0  0  0  0  0  0  0  0  0  0
   11.2836   36.3062   32.4933 H   0  0  0  0  0  0  0  0  0  0  0  0
   11.8850   36.9585   29.7591 H   0  0  0  0  0  0  0  0  0  0  0  0
   12.3371   38.3613   34.7442 H   0  0  0  0  0  0  0  0  0  0  0  0
   16.7579   34.1800   32.4621 H   0  0  0  0  0  0  0  0  0  0  0  0
   15.3526   35.7358   37.5138 H   0  0  0  0  0  0  0  0  0  0  0  0
   16.6359   34.5318   37.1414 H   0  0  0  0  0  0  0  0  0  0  0  0
  1  2  2  0
  1  3  1  0
  3  4  1  0
  4  5  1  0
  6  1  1  0
  7  6  1  0
  6  8  1  0
  8  9  1  0
  9 10  1  0
  9 11  2  0
 10 12  1  0
 12 13  1  0
 13 14  2  0
 15 13  1  0
 14 16  1  0
 14 17  1  0
 18 15  2  0
 16 19  1  0
 16 20  2  0
 17 21  2  0
 21 18  1  0
  4 22  2  0
  4 23  1  0
 24 23  1  0
 24 25  1  0
 25 26  1  0
 25 27  1  0
 26 28  1  0
 27 29  1  0
 27 30  1  0
 30 28  1  0
 28 31  1  0
 30 32  1  0
 33 31  1  0
 34 31  1  0
 35 33  2  0
 33 36  1  0
 37 34  2  0
 38 35  1  0
 36 39  2  0
 36 37  1  0
 40 38  2  0
 40 39  1  0
 39 41  1  0
  6 42  1  6
  7 43  1  0
  7 44  1  0
  8 45  1  0
  8 46  1  0
 12 47  1  0
 12 48  1  0
 15 49  1  0
 17 50  1  0
 18 51  1  0
 21 52  1  0
 24 53  1  0
 24 54  1  0
 25 55  1  0
 27 56  1  0
 28 57  1  0
 29 58  1  0
 30 59  1  0
 32 60  1  0
 34 61  1  0
 38 62  1  0
 41 63  1  0
 41 64  1  0
M  CHG  3   5  -1  16   1  19  -1
M  END
>  <EmbedRMS>  (344) 
0.08843591693241172

$$$$

     RDKit          3D

 64 67  0  0  0  0  0  0  0  0999 V2000
   10.2850   43.7725   33.8067 C   0  0  0  0  0  0  0  0  0  0  0  0
   11.4105   43.5875   34.3565 O   0  0  0  0  0  0  0  0  0  0  0  0
    9.3667   42.7312   33.7010 O   0  0  0  0  0  0  0  0  0  0  0  0
    9.8856   41.2340   34.2840 P   0  0  0  0  0  5  0  0  0  0  0  0
   10.3657   41.4695   35.8746 O   0  0  0  0  0  1  0  0  0  0  0  0
    9.9580   45.1109   33.2447 C   0  0  2  0  0  0  0  0  0  0  0  0
   11.0676   46.0360   33.4841 N   0  0  0  0  0  0  0  0  0  0  0  0
    8.6208   45.6594   33.7925 C   0  0  0  0  0  0  0  0  0  0  0  0
    8.5965   45.7779   35.2887 C   0  0  0  0  0  0  0  0  0  0  0  0
    8.9740   46.9808   35.8921 O   0  0  0  0  0  0  0  0  0  0  0  0
    8.2519   44.7876   35.9902 O   0  0  0  0  0  0  0  0  0  0  0  0
    8.9259   47.1817   37.3014 C   0  0  0  0  0  0  0  0  0  0  0  0
    9.4251   48.5661   37.6329 C   0  0  0  0  0  0  0  0  0  0  0  0
   10.7381   48.9960   37.2972 C   0  0  0  0  0  0  0  0  0  0  0  0
    8.5399   49.4767   38.2398 C   0  0  0  0  0  0  0  0  0  0  0  0
   11.6960   48.1161   36.6827 N   0  0  0  0  0  4  0  0  0  0  0  0
   11.1104   50.3268   37.5562 C   0  0  0  0  0  0  0  0  0  0  0  0
    8.9365   50.7883   38.5038 C   0  0  0  0  0  0  0  0  0  0  0  0
   12.6296   48.6229   35.8082 O   0  0  0  0  0  1  0  0  0  0  0  0
   11.8142   46.9351   37.0676 O   0  0  0  0  0  0  0  0  0  0  0  0
   10.2175   51.2136   38.1589 C   0  0  0  0  0  0  0  0  0  0  0  0
    8.8082   40.1910   34.2080 O   0  0  0  0  0  0  0  0  0  0  0  0
   11.2384   40.7904   33.3687 O   0  0  0  0  0  0  0  0  0  0  0  0
   10.9193   40.6895   31.9949 C   0  0  0  0  0  0  0  0  0  0  0  0
   11.5171   39.3801   31.4398 C   0  0  0  0  0  0  0  0  0  0  0  0
   12.7478   39.0862   32.0734 O   0  0  0  0  0  0  0  0  0  0  0  0
   10.6031   38.1891   31.6666 C   0  0  0  0  0  0  0  0  0  0  0  0
   12.9335   37.6797   32.0280 C   0  0  0  0  0  0  0  0  0  0  0  0
    9.6397   38.0777   30.6456 O   0  0  0  0  0  0  0  0  0  0  0  0
   11.5739   37.0154   31.7057 C   0  0  0  0  0  0  0  0  0  0  0  0
   13.4903   37.2178   33.3231 N   0  0  0  0  0  0  0  0  0  0  0  0
   11.6211   36.3376   30.4695 O   0  0  0  0  0  0  0  0  0  0  0  0
   14.4761   36.3273   33.5725 C   0  0  0  0  0  0  0  0  0  0  0  0
   13.1179   37.6316   34.5684 C   0  0  0  0  0  0  0  0  0  0  0  0
   15.2063   35.6139   32.6737 N   0  0  0  0  0  0  0  0  0  0  0  0
   14.6733   36.2277   34.9180 C   0  0  0  0  0  0  0  0  0  0  0  0
   13.8225   37.0459   35.5779 N   0  0  0  0  0  0  0  0  0  0  0  0
   16.1636   34.7594   33.1546 C   0  0  0  0  0  0  0  0  0  0  0  0
   15.6515   35.3494   35.4129 C   0  0  0  0  0  0  0  0  0  0  0  0
   16.3791   34.6311   34.5041 N   0  0  0  0  0  0  0  0  0  0  0  0
   15.9001   35.1935   36.8088 N   0  0  0  0  0  0  0  0  0  0  0  0
    9.8470   44.9847   32.1454 H   0  0  0  0  0  0  0  0  0  0  0  0
   10.8542   46.9453   33.0133 H   0  0  0  0  0  0  0  0  0  0  0  0
   11.1573   46.2294   34.5072 H   0  0  0  0  0  0  0  0  0  0  0  0
    8.4239   46.6588   33.3481 H   0  0  0  0  0  0  0  0  0  0  0  0
    7.7899   44.9954   33.4679 H   0  0  0  0  0  0  0  0  0  0  0  0
    9.5409   46.4199   37.8240 H   0  0  0  0  0  0  0  0  0  0  0  0
    7.8779   47.0433   37.6474 H   0  0  0  0  0  0  0  0  0  0  0  0
    7.5328   49.1761   38.5017 H   0  0  0  0  0  0  0  0  0  0  0  0
   12.1040   50.6756   37.3048 H   0  0  0  0  0  0  0  0  0  0  0  0
    8.2454   51.4788   38.9699 H   0  0  0  0  0  0  0  0  0  0  0  0
   10.5208   52.2330   38.3603 H   0  0  0  0  0  0  0  0  0  0  0  0
   11.4009   41.5437   31.4729 H   0  0  0  0  0  0  0  0  0  0  0  0
    9.8315   40.7397   31.7549 H   0  0  0  0  0  0  0  0  0  0  0  0
   11.6982   39.5043   30.3471 H   0  0  0  0  0  0  0  0  0  0  0  0
   10.1089   38.2631   32.6649 H   0  0  0  0  0  0  0  0  0  0  0  0
   13.6656   37.4541   31.2207 H   0  0  0  0  0  0  0  0  0  0  0  0
    8.8965   38.6899   30.8852 H   0  0  0  0  0  0  0  0  0  0  0  0
   11.2846   36.3060   32.5175 H   0  0  0  0  0  0  0  0  0  0  0  0
   10.8523   35.7095   30.4590 H   0  0  0  0  0  0  0  0  0  0  0  0
   12.3353   38.3588   34.7439 H   0  0  0  0  0  0  0  0  0  0  0  0
   16.7570   34.1788   32.4619 H   0  0  0  0  0  0  0  0  0  0  0  0
   16.6360   34.5317   37.1413 H   0  0  0  0  0  0  0  0  0  0  0  0
   15.3529   35.7359   37.5136 H   0  0  0  0  0  0  0  0  0  0  0  0
  1  2  2  0
  1  3  1  0
  3  4  1  0
  4  5  1  0
  6  1  1  0
  7  6  1  0
  6  8  1  0
  8  9  1  0
  9 10  1  0
  9 11  2  0
 10 12  1  0
 12 13  1  0
 13 14  2  0
 15 13  1  0
 14 16  1  0
 14 17  1  0
 18 15  2  0
 16 19  1  0
 16 20  2  0
 17 21  2  0
 21 18  1  0
  4 22  2  0
  4 23  1  0
 24 23  1  0
 24 25  1  0
 25 26  1  0
 25 27  1  0
 26 28  1  0
 27 29  1  0
 27 30  1  0
 30 28  1  0
 28 31  1  0
 30 32  1  0
 33 31  1  0
 34 31  1  0
 35 33  2  0
 33 36  1  0
 37 34  2  0
 38 35  1  0
 36 39  2  0
 36 37  1  0
 40 38  2  0
 40 39  1  0
 39 41  1  0
  6 42  1  6
  7 43  1  0
  7 44  1  0
  8 45  1  0
  8 46  1  0
 12 47  1  0
 12 48  1  0
 15 49  1  0
 17 50  1  0
 18 51  1  0
 21 52  1  0
 24 53  1  0
 24 54  1  0
 25 55  1  0
 27 56  1  0
 28 57  1  0
 29 58  1  0
 30 59  1  0
 32 60  1  0
 34 61  1  0
 38 62  1  0
 41 63  1  0
 41 64  1  0
M  CHG  3   5  -1  16   1  19  -1
M  END
>  <EmbedRMS>  (345) 
0.08930856551974103

$$$$

     RDKit          3D

 64 67  0  0  0  0  0  0  0  0999 V2000
   10.2841   43.7736   33.8102 C   0  0  0  0  0  0  0  0  0  0  0  0
   11.4069   43.5897   34.3659 O   0  0  0  0  0  0  0  0  0  0  0  0
    9.3666   42.7319   33.7024 O   0  0  0  0  0  0  0  0  0  0  0  0
    9.8853   41.2340   34.2832 P   0  0  0  0  0  5  0  0  0  0  0  0
   10.3676   41.4662   35.8720 O   0  0  0  0  0  1  0  0  0  0  0  0
    9.9548   45.1133   33.2493 C   0  0  2  0  0  0  0  0  0  0  0  0
   11.0728   46.0324   33.4722 N   0  0  0  0  0  0  0  0  0  0  0  0
    8.6574   45.6707   33.8704 C   0  0  0  0  0  0  0  0  0  0  0  0
    8.8106   45.9684   35.3319 C   0  0  0  0  0  0  0  0  0  0  0  0
    8.5546   44.9629   36.2715 O   0  0  0  0  0  0  0  0  0  0  0  0
    9.1936   47.1134   35.6972 O   0  0  0  0  0  0  0  0  0  0  0  0
    8.8758   45.0751   37.6575 C   0  0  0  0  0  0  0  0  0  0  0  0
   10.2409   44.4802   37.9173 C   0  0  0  0  0  0  0  0  0  0  0  0
   10.4186   43.2050   38.5167 C   0  0  0  0  0  0  0  0  0  0  0  0
   11.3706   45.1777   37.4521 C   0  0  0  0  0  0  0  0  0  0  0  0
    9.3171   42.4577   39.0508 N   0  0  0  0  0  4  0  0  0  0  0  0
   11.7084   42.6540   38.5969 C   0  0  0  0  0  0  0  0  0  0  0  0
   12.6461   44.6203   37.5537 C   0  0  0  0  0  0  0  0  0  0  0  0
    9.2445   41.1024   38.8265 O   0  0  0  0  0  1  0  0  0  0  0  0
    8.6003   42.9592   39.9409 O   0  0  0  0  0  0  0  0  0  0  0  0
   12.8139   43.3573   38.1180 C   0  0  0  0  0  0  0  0  0  0  0  0
    8.8076   40.1913   34.2078 O   0  0  0  0  0  0  0  0  0  0  0  0
   11.2369   40.7908   33.3670 O   0  0  0  0  0  0  0  0  0  0  0  0
   10.9150   40.6884   31.9942 C   0  0  0  0  0  0  0  0  0  0  0  0
   11.5260   39.3872   31.4363 C   0  0  0  0  0  0  0  0  0  0  0  0
   12.7489   39.0895   32.0821 O   0  0  0  0  0  0  0  0  0  0  0  0
   10.6123   38.1894   31.6459 C   0  0  0  0  0  0  0  0  0  0  0  0
   12.9372   37.6829   32.0303 C   0  0  0  0  0  0  0  0  0  0  0  0
    9.6153   38.0837   30.6533 O   0  0  0  0  0  0  0  0  0  0  0  0
   11.5793   37.0138   31.7016 C   0  0  0  0  0  0  0  0  0  0  0  0
   13.4906   37.2170   33.3244 N   0  0  0  0  0  0  0  0  0  0  0  0
   11.6218   36.3250   30.4729 O   0  0  0  0  0  0  0  0  0  0  0  0
   14.4763   36.3267   33.5731 C   0  0  0  0  0  0  0  0  0  0  0  0
   13.1180   37.6308   34.5696 C   0  0  0  0  0  0  0  0  0  0  0  0
   15.2064   35.6138   32.6739 N   0  0  0  0  0  0  0  0  0  0  0  0
   14.6736   36.2270   34.9185 C   0  0  0  0  0  0  0  0  0  0  0  0
   13.8228   37.0450   35.5788 N   0  0  0  0  0  0  0  0  0  0  0  0
   16.1639   34.7594   33.1546 C   0  0  0  0  0  0  0  0  0  0  0  0
   15.6519   35.3489   35.4131 C   0  0  0  0  0  0  0  0  0  0  0  0
   16.3795   34.6309   34.5041 N   0  0  0  0  0  0  0  0  0  0  0  0
   15.9007   35.1932   36.8090 N   0  0  0  0  0  0  0  0  0  0  0  0
    9.7921   44.9946   32.1544 H   0  0  0  0  0  0  0  0  0  0  0  0
   10.8139   46.9679   33.0819 H   0  0  0  0  0  0  0  0  0  0  0  0
   11.8876   45.7068   32.9014 H   0  0  0  0  0  0  0  0  0  0  0  0
    8.3672   46.6020   33.3366 H   0  0  0  0  0  0  0  0  0  0  0  0
    7.8260   44.9467   33.7288 H   0  0  0  0  0  0  0  0  0  0  0  0
    8.8518   46.1356   37.9905 H   0  0  0  0  0  0  0  0  0  0  0  0
    8.0823   44.5597   38.2276 H   0  0  0  0  0  0  0  0  0  0  0  0
   11.2649   46.1518   36.9934 H   0  0  0  0  0  0  0  0  0  0  0  0
   11.8579   41.6802   39.0463 H   0  0  0  0  0  0  0  0  0  0  0  0
   13.5051   45.1652   37.1840 H   0  0  0  0  0  0  0  0  0  0  0  0
   13.8032   42.9243   38.1901 H   0  0  0  0  0  0  0  0  0  0  0  0
   11.3822   41.5505   31.4717 H   0  0  0  0  0  0  0  0  0  0  0  0
    9.8248   40.7181   31.7576 H   0  0  0  0  0  0  0  0  0  0  0  0
   11.7294   39.5287   30.3502 H   0  0  0  0  0  0  0  0  0  0  0  0
   10.1137   38.2721   32.6376 H   0  0  0  0  0  0  0  0  0  0  0  0
   13.6724   37.4639   31.2242 H   0  0  0  0  0  0  0  0  0  0  0  0
   10.0543   38.1083   29.7636 H   0  0  0  0  0  0  0  0  0  0  0  0
   11.2644   36.3139   32.5111 H   0  0  0  0  0  0  0  0  0  0  0  0
   12.1553   35.5032   30.6323 H   0  0  0  0  0  0  0  0  0  0  0  0
   12.3359   38.3584   34.7454 H   0  0  0  0  0  0  0  0  0  0  0  0
   16.7576   34.1792   32.4618 H   0  0  0  0  0  0  0  0  0  0  0  0
   16.6366   34.5314   37.1416 H   0  0  0  0  0  0  0  0  0  0  0  0
   15.3534   35.7354   37.5139 H   0  0  0  0  0  0  0  0  0  0  0  0
  1  2  2  0
  1  3  1  0
  3  4  1  0
  4  5  1  0
  6  1  1  0
  7  6  1  0
  6  8  1  0
  8  9  1  0
  9 10  1  0
  9 11  2  0
 10 12  1  0
 12 13  1  0
 13 14  2  0
 15 13  1  0
 14 16  1  0
 14 17  1  0
 18 15  2  0
 16 19  1  0
 16 20  2  0
 17 21  2  0
 21 18  1  0
  4 22  2  0
  4 23  1  0
 24 23  1  0
 24 25  1  0
 25 26  1  0
 25 27  1  0
 26 28  1  0
 27 29  1  0
 27 30  1  0
 30 28  1  0
 28 31  1  0
 30 32  1  0
 33 31  1  0
 34 31  1  0
 35 33  2  0
 33 36  1  0
 37 34  2  0
 38 35  1  0
 36 39  2  0
 36 37  1  0
 40 38  2  0
 40 39  1  0
 39 41  1  0
  6 42  1  6
  7 43  1  0
  7 44  1  0
  8 45  1  0
  8 46  1  0
 12 47  1  0
 12 48  1  0
 15 49  1  0
 17 50  1  0
 18 51  1  0
 21 52  1  0
 24 53  1  0
 24 54  1  0
 25 55  1  0
 27 56  1  0
 28 57  1  0
 29 58  1  0
 30 59  1  0
 32 60  1  0
 34 61  1  0
 38 62  1  0
 41 63  1  0
 41 64  1  0
M  CHG  3   5  -1  16   1  19  -1
M  END
>  <EmbedRMS>  (346) 
0.08793461162759011

$$$$

     RDKit          3D

 64 67  0  0  0  0  0  0  0  0999 V2000
   10.2844   43.7743   33.8068 C   0  0  0  0  0  0  0  0  0  0  0  0
   11.4069   43.5904   34.3635 O   0  0  0  0  0  0  0  0  0  0  0  0
    9.3681   42.7310   33.6986 O   0  0  0  0  0  0  0  0  0  0  0  0
    9.8863   41.2340   34.2826 P   0  0  0  0  0  5  0  0  0  0  0  0
   10.3670   41.4693   35.8732 O   0  0  0  0  0  1  0  0  0  0  0  0
    9.9493   45.1163   33.2545 C   0  0  2  0  0  0  0  0  0  0  0  0
   11.0752   46.0280   33.4736 N   0  0  0  0  0  0  0  0  0  0  0  0
    8.6782   45.6535   33.9411 C   0  0  0  0  0  0  0  0  0  0  0  0
    8.1757   46.8976   33.2762 C   0  0  0  0  0  0  0  0  0  0  0  0
    7.5720   46.8075   32.0167 O   0  0  0  0  0  0  0  0  0  0  0  0
    8.3157   48.0145   33.8456 O   0  0  0  0  0  0  0  0  0  0  0  0
    7.0544   47.9388   31.3166 C   0  0  0  0  0  0  0  0  0  0  0  0
    5.7994   48.4763   31.9728 C   0  0  0  0  0  0  0  0  0  0  0  0
    5.4665   49.8568   31.9309 C   0  0  0  0  0  0  0  0  0  0  0  0
    4.9237   47.5823   32.6195 C   0  0  0  0  0  0  0  0  0  0  0  0
    6.2554   50.8063   31.1940 N   0  0  0  0  0  4  0  0  0  0  0  0
    4.3247   50.3094   32.6148 C   0  0  0  0  0  0  0  0  0  0  0  0
    3.7840   48.0496   33.2752 C   0  0  0  0  0  0  0  0  0  0  0  0
    6.3594   52.1040   31.6395 O   0  0  0  0  0  1  0  0  0  0  0  0
    6.6712   50.5283   30.0503 O   0  0  0  0  0  0  0  0  0  0  0  0
    3.4919   49.4118   33.2837 C   0  0  0  0  0  0  0  0  0  0  0  0
    8.8083   40.1915   34.2077 O   0  0  0  0  0  0  0  0  0  0  0  0
   11.2377   40.7903   33.3657 O   0  0  0  0  0  0  0  0  0  0  0  0
   10.9147   40.6850   31.9929 C   0  0  0  0  0  0  0  0  0  0  0  0
   11.5168   39.3772   31.4392 C   0  0  0  0  0  0  0  0  0  0  0  0
   12.7473   39.0853   32.0738 O   0  0  0  0  0  0  0  0  0  0  0  0
   10.6048   38.1867   31.6669 C   0  0  0  0  0  0  0  0  0  0  0  0
   12.9346   37.6790   32.0282 C   0  0  0  0  0  0  0  0  0  0  0  0
    9.6378   38.0917   30.6489 O   0  0  0  0  0  0  0  0  0  0  0  0
   11.5761   37.0128   31.7056 C   0  0  0  0  0  0  0  0  0  0  0  0
   13.4910   37.2177   33.3233 N   0  0  0  0  0  0  0  0  0  0  0  0
   11.6234   36.3371   30.4684 O   0  0  0  0  0  0  0  0  0  0  0  0
   14.4765   36.3271   33.5727 C   0  0  0  0  0  0  0  0  0  0  0  0
   13.1182   37.6315   34.5685 C   0  0  0  0  0  0  0  0  0  0  0  0
   15.2066   35.6137   32.6739 N   0  0  0  0  0  0  0  0  0  0  0  0
   14.6736   36.2276   34.9182 C   0  0  0  0  0  0  0  0  0  0  0  0
   13.8227   37.0457   35.5781 N   0  0  0  0  0  0  0  0  0  0  0  0
   16.1638   34.7592   33.1548 C   0  0  0  0  0  0  0  0  0  0  0  0
   15.6517   35.3492   35.4131 C   0  0  0  0  0  0  0  0  0  0  0  0
   16.3793   34.6309   34.5043 N   0  0  0  0  0  0  0  0  0  0  0  0
   15.9002   35.1934   36.8090 N   0  0  0  0  0  0  0  0  0  0  0  0
    9.7647   45.0042   32.1618 H   0  0  0  0  0  0  0  0  0  0  0  0
   11.8938   45.6802   32.9216 H   0  0  0  0  0  0  0  0  0  0  0  0
   10.8428   46.9573   33.0546 H   0  0  0  0  0  0  0  0  0  0  0  0
    8.8839   45.8533   35.0162 H   0  0  0  0  0  0  0  0  0  0  0  0
    7.8672   44.8948   33.8883 H   0  0  0  0  0  0  0  0  0  0  0  0
    6.8069   47.6318   30.2792 H   0  0  0  0  0  0  0  0  0  0  0  0
    7.8502   48.7120   31.2695 H   0  0  0  0  0  0  0  0  0  0  0  0
    5.1287   46.5190   32.6308 H   0  0  0  0  0  0  0  0  0  0  0  0
    4.0619   51.3597   32.6055 H   0  0  0  0  0  0  0  0  0  0  0  0
    3.1275   47.3533   33.7811 H   0  0  0  0  0  0  0  0  0  0  0  0
    2.6090   49.7719   33.7959 H   0  0  0  0  0  0  0  0  0  0  0  0
   11.3877   41.5414   31.4666 H   0  0  0  0  0  0  0  0  0  0  0  0
    9.8246   40.7213   31.7563 H   0  0  0  0  0  0  0  0  0  0  0  0
   11.6988   39.5011   30.3466 H   0  0  0  0  0  0  0  0  0  0  0  0
   10.1097   38.2772   32.6629 H   0  0  0  0  0  0  0  0  0  0  0  0
   13.6673   37.4543   31.2212 H   0  0  0  0  0  0  0  0  0  0  0  0
    8.9779   37.4158   30.9534 H   0  0  0  0  0  0  0  0  0  0  0  0
   11.2860   36.3041   32.5177 H   0  0  0  0  0  0  0  0  0  0  0  0
   10.8689   35.6918   30.4657 H   0  0  0  0  0  0  0  0  0  0  0  0
   12.3355   38.3586   34.7439 H   0  0  0  0  0  0  0  0  0  0  0  0
   16.7572   34.1786   32.4621 H   0  0  0  0  0  0  0  0  0  0  0  0
   16.6361   34.5315   37.1415 H   0  0  0  0  0  0  0  0  0  0  0  0
   15.3530   35.7358   37.5138 H   0  0  0  0  0  0  0  0  0  0  0  0
  1  2  2  0
  1  3  1  0
  3  4  1  0
  4  5  1  0
  6  1  1  0
  7  6  1  0
  6  8  1  0
  8  9  1  0
  9 10  1  0
  9 11  2  0
 10 12  1  0
 12 13  1  0
 13 14  2  0
 15 13  1  0
 14 16  1  0
 14 17  1  0
 18 15  2  0
 16 19  1  0
 16 20  2  0
 17 21  2  0
 21 18  1  0
  4 22  2  0
  4 23  1  0
 24 23  1  0
 24 25  1  0
 25 26  1  0
 25 27  1  0
 26 28  1  0
 27 29  1  0
 27 30  1  0
 30 28  1  0
 28 31  1  0
 30 32  1  0
 33 31  1  0
 34 31  1  0
 35 33  2  0
 33 36  1  0
 37 34  2  0
 38 35  1  0
 36 39  2  0
 36 37  1  0
 40 38  2  0
 40 39  1  0
 39 41  1  0
  6 42  1  6
  7 43  1  0
  7 44  1  0
  8 45  1  0
  8 46  1  0
 12 47  1  0
 12 48  1  0
 15 49  1  0
 17 50  1  0
 18 51  1  0
 21 52  1  0
 24 53  1  0
 24 54  1  0
 25 55  1  0
 27 56  1  0
 28 57  1  0
 29 58  1  0
 30 59  1  0
 32 60  1  0
 34 61  1  0
 38 62  1  0
 41 63  1  0
 41 64  1  0
M  CHG  3   5  -1  16   1  19  -1
M  END
>  <EmbedRMS>  (347) 
0.08908209773108713

$$$$

     RDKit          3D

 64 67  0  0  0  0  0  0  0  0999 V2000
   10.2872   43.7703   33.8003 C   0  0  0  0  0  0  0  0  0  0  0  0
   11.4099   43.5855   34.3557 O   0  0  0  0  0  0  0  0  0  0  0  0
    9.3672   42.7306   33.6980 O   0  0  0  0  0  0  0  0  0  0  0  0
    9.8852   41.2345   34.2845 P   0  0  0  0  0  5  0  0  0  0  0  0
   10.3655   41.4717   35.8748 O   0  0  0  0  0  1  0  0  0  0  0  0
    9.9528   45.1159   33.2545 C   0  0  2  0  0  0  0  0  0  0  0  0
   11.0701   46.0336   33.4818 N   0  0  0  0  0  0  0  0  0  0  0  0
    8.6589   45.6656   33.8912 C   0  0  0  0  0  0  0  0  0  0  0  0
    8.7278   45.6981   35.3898 C   0  0  0  0  0  0  0  0  0  0  0  0
    9.5621   46.6238   36.0268 O   0  0  0  0  0  0  0  0  0  0  0  0
    8.0606   44.8650   36.0623 O   0  0  0  0  0  0  0  0  0  0  0  0
    9.8082   46.6043   37.4315 C   0  0  0  0  0  0  0  0  0  0  0  0
   10.6448   45.4003   37.8043 C   0  0  0  0  0  0  0  0  0  0  0  0
   11.9404   45.1689   37.2592 C   0  0  0  0  0  0  0  0  0  0  0  0
   10.0825   44.4408   38.6672 C   0  0  0  0  0  0  0  0  0  0  0  0
   12.5837   46.1018   36.3676 N   0  0  0  0  0  4  0  0  0  0  0  0
   12.6111   43.9745   37.5827 C   0  0  0  0  0  0  0  0  0  0  0  0
   10.7735   43.2712   38.9823 C   0  0  0  0  0  0  0  0  0  0  0  0
   13.5500   45.6606   35.4926 O   0  0  0  0  0  1  0  0  0  0  0  0
   12.3976   47.3305   36.4762 O   0  0  0  0  0  0  0  0  0  0  0  0
   12.0333   43.0368   38.4384 C   0  0  0  0  0  0  0  0  0  0  0  0
    8.8077   40.1915   34.2095 O   0  0  0  0  0  0  0  0  0  0  0  0
   11.2371   40.7894   33.3691 O   0  0  0  0  0  0  0  0  0  0  0  0
   10.9162   40.6890   31.9958 C   0  0  0  0  0  0  0  0  0  0  0  0
   11.5252   39.3874   31.4367 C   0  0  0  0  0  0  0  0  0  0  0  0
   12.7487   39.0880   32.0804 O   0  0  0  0  0  0  0  0  0  0  0  0
   10.6101   38.1910   31.6471 C   0  0  0  0  0  0  0  0  0  0  0  0
   12.9348   37.6808   32.0293 C   0  0  0  0  0  0  0  0  0  0  0  0
    9.6127   38.0876   30.6547 O   0  0  0  0  0  0  0  0  0  0  0  0
   11.5767   37.0134   31.7026 C   0  0  0  0  0  0  0  0  0  0  0  0
   13.4901   37.2166   33.3237 N   0  0  0  0  0  0  0  0  0  0  0  0
   11.6321   36.3232   30.4742 O   0  0  0  0  0  0  0  0  0  0  0  0
   14.4762   36.3266   33.5728 C   0  0  0  0  0  0  0  0  0  0  0  0
   13.1180   37.6309   34.5690 C   0  0  0  0  0  0  0  0  0  0  0  0
   15.2065   35.6135   32.6739 N   0  0  0  0  0  0  0  0  0  0  0  0
   14.6736   36.2272   34.9182 C   0  0  0  0  0  0  0  0  0  0  0  0
   13.8229   37.0454   35.5784 N   0  0  0  0  0  0  0  0  0  0  0  0
   16.1639   34.7593   33.1547 C   0  0  0  0  0  0  0  0  0  0  0  0
   15.6518   35.3491   35.4131 C   0  0  0  0  0  0  0  0  0  0  0  0
   16.3794   34.6309   34.5042 N   0  0  0  0  0  0  0  0  0  0  0  0
   15.9005   35.1933   36.8089 N   0  0  0  0  0  0  0  0  0  0  0  0
    9.7849   45.0130   32.1588 H   0  0  0  0  0  0  0  0  0  0  0  0
   10.8131   46.9723   33.0986 H   0  0  0  0  0  0  0  0  0  0  0  0
   11.8846   45.7118   32.9085 H   0  0  0  0  0  0  0  0  0  0  0  0
    7.7980   45.0373   33.5725 H   0  0  0  0  0  0  0  0  0  0  0  0
    8.4631   46.6935   33.5176 H   0  0  0  0  0  0  0  0  0  0  0  0
    8.8367   46.6138   37.9731 H   0  0  0  0  0  0  0  0  0  0  0  0
   10.3298   47.5350   37.7320 H   0  0  0  0  0  0  0  0  0  0  0  0
    9.0957   44.5891   39.0882 H   0  0  0  0  0  0  0  0  0  0  0  0
   13.5945   43.7706   37.1790 H   0  0  0  0  0  0  0  0  0  0  0  0
   10.3261   42.5402   39.6434 H   0  0  0  0  0  0  0  0  0  0  0  0
   12.5648   42.1253   38.6797 H   0  0  0  0  0  0  0  0  0  0  0  0
    9.8263   40.7207   31.7582 H   0  0  0  0  0  0  0  0  0  0  0  0
   11.3852   41.5508   31.4745 H   0  0  0  0  0  0  0  0  0  0  0  0
   11.7272   39.5291   30.3504 H   0  0  0  0  0  0  0  0  0  0  0  0
   10.1122   38.2732   32.6391 H   0  0  0  0  0  0  0  0  0  0  0  0
   13.6686   37.4591   31.2225 H   0  0  0  0  0  0  0  0  0  0  0  0
   10.0515   38.1113   29.7649 H   0  0  0  0  0  0  0  0  0  0  0  0
   11.2801   36.3129   32.5196 H   0  0  0  0  0  0  0  0  0  0  0  0
   10.8624   35.6961   30.4646 H   0  0  0  0  0  0  0  0  0  0  0  0
   12.3358   38.3584   34.7446 H   0  0  0  0  0  0  0  0  0  0  0  0
   16.7574   34.1787   32.4620 H   0  0  0  0  0  0  0  0  0  0  0  0
   16.6364   34.5316   37.1415 H   0  0  0  0  0  0  0  0  0  0  0  0
   15.3532   35.7356   37.5138 H   0  0  0  0  0  0  0  0  0  0  0  0
  1  2  2  0
  1  3  1  0
  3  4  1  0
  4  5  1  0
  6  1  1  0
  7  6  1  0
  6  8  1  0
  8  9  1  0
  9 10  1  0
  9 11  2  0
 10 12  1  0
 12 13  1  0
 13 14  2  0
 15 13  1  0
 14 16  1  0
 14 17  1  0
 18 15  2  0
 16 19  1  0
 16 20  2  0
 17 21  2  0
 21 18  1  0
  4 22  2  0
  4 23  1  0
 24 23  1  0
 24 25  1  0
 25 26  1  0
 25 27  1  0
 26 28  1  0
 27 29  1  0
 27 30  1  0
 30 28  1  0
 28 31  1  0
 30 32  1  0
 33 31  1  0
 34 31  1  0
 35 33  2  0
 33 36  1  0
 37 34  2  0
 38 35  1  0
 36 39  2  0
 36 37  1  0
 40 38  2  0
 40 39  1  0
 39 41  1  0
  6 42  1  6
  7 43  1  0
  7 44  1  0
  8 45  1  0
  8 46  1  0
 12 47  1  0
 12 48  1  0
 15 49  1  0
 17 50  1  0
 18 51  1  0
 21 52  1  0
 24 53  1  0
 24 54  1  0
 25 55  1  0
 27 56  1  0
 28 57  1  0
 29 58  1  0
 30 59  1  0
 32 60  1  0
 34 61  1  0
 38 62  1  0
 41 63  1  0
 41 64  1  0
M  CHG  3   5  -1  16   1  19  -1
M  END
>  <EmbedRMS>  (348) 
0.08799393857013671

$$$$

     RDKit          3D

 64 67  0  0  0  0  0  0  0  0999 V2000
   10.2829   43.7755   33.8078 C   0  0  0  0  0  0  0  0  0  0  0  0
   11.4086   43.5914   34.3578 O   0  0  0  0  0  0  0  0  0  0  0  0
    9.3667   42.7319   33.7016 O   0  0  0  0  0  0  0  0  0  0  0  0
    9.8860   41.2347   34.2846 P   0  0  0  0  0  5  0  0  0  0  0  0
   10.3662   41.4696   35.8751 O   0  0  0  0  0  1  0  0  0  0  0  0
    9.9538   45.1115   33.2430 C   0  0  2  0  0  0  0  0  0  0  0  0
   11.0723   46.0270   33.4849 N   0  0  0  0  0  0  0  0  0  0  0  0
    8.6402   45.6444   33.8527 C   0  0  0  0  0  0  0  0  0  0  0  0
    8.2203   46.9292   33.2095 C   0  0  0  0  0  0  0  0  0  0  0  0
    7.6619   46.9037   31.9269 O   0  0  0  0  0  0  0  0  0  0  0  0
    8.3980   48.0206   33.8154 O   0  0  0  0  0  0  0  0  0  0  0  0
    7.2410   48.0743   31.2280 C   0  0  0  0  0  0  0  0  0  0  0  0
    6.0195   48.6818   31.8800 C   0  0  0  0  0  0  0  0  0  0  0  0
    5.9215   50.0639   32.1880 C   0  0  0  0  0  0  0  0  0  0  0  0
    4.9028   47.8529   32.0923 C   0  0  0  0  0  0  0  0  0  0  0  0
    7.0258   50.9610   32.0002 N   0  0  0  0  0  4  0  0  0  0  0  0
    4.7115   50.5730   32.6907 C   0  0  0  0  0  0  0  0  0  0  0  0
    3.7153   48.3735   32.6088 C   0  0  0  0  0  0  0  0  0  0  0  0
    8.2303   50.7047   32.6128 O   0  0  0  0  0  1  0  0  0  0  0  0
    6.8303   52.0903   31.5056 O   0  0  0  0  0  0  0  0  0  0  0  0
    3.6187   49.7319   32.9046 C   0  0  0  0  0  0  0  0  0  0  0  0
    8.8089   40.1914   34.2081 O   0  0  0  0  0  0  0  0  0  0  0  0
   11.2386   40.7916   33.3693 O   0  0  0  0  0  0  0  0  0  0  0  0
   10.9187   40.6907   31.9960 C   0  0  0  0  0  0  0  0  0  0  0  0
   11.5174   39.3824   31.4412 C   0  0  0  0  0  0  0  0  0  0  0  0
   12.7494   39.0893   32.0757 O   0  0  0  0  0  0  0  0  0  0  0  0
   10.6036   38.1900   31.6660 C   0  0  0  0  0  0  0  0  0  0  0  0
   12.9401   37.6834   32.0276 C   0  0  0  0  0  0  0  0  0  0  0  0
    9.6376   38.0785   30.6474 O   0  0  0  0  0  0  0  0  0  0  0  0
   11.5803   37.0204   31.6937 C   0  0  0  0  0  0  0  0  0  0  0  0
   13.4902   37.2177   33.3237 N   0  0  0  0  0  0  0  0  0  0  0  0
   11.6118   36.3193   30.4680 O   0  0  0  0  0  0  0  0  0  0  0  0
   14.4759   36.3271   33.5731 C   0  0  0  0  0  0  0  0  0  0  0  0
   13.1176   37.6317   34.5688 C   0  0  0  0  0  0  0  0  0  0  0  0
   15.2064   35.6142   32.6742 N   0  0  0  0  0  0  0  0  0  0  0  0
   14.6729   36.2274   34.9184 C   0  0  0  0  0  0  0  0  0  0  0  0
   13.8221   37.0457   35.5783 N   0  0  0  0  0  0  0  0  0  0  0  0
   16.1637   34.7597   33.1549 C   0  0  0  0  0  0  0  0  0  0  0  0
   15.6514   35.3493   35.4133 C   0  0  0  0  0  0  0  0  0  0  0  0
   16.3791   34.6312   34.5044 N   0  0  0  0  0  0  0  0  0  0  0  0
   15.9001   35.1935   36.8091 N   0  0  0  0  0  0  0  0  0  0  0  0
    9.8222   44.9845   32.1452 H   0  0  0  0  0  0  0  0  0  0  0  0
   10.9389   46.8874   32.9057 H   0  0  0  0  0  0  0  0  0  0  0  0
   11.0788   46.3213   34.4894 H   0  0  0  0  0  0  0  0  0  0  0  0
    7.8259   44.9038   33.6969 H   0  0  0  0  0  0  0  0  0  0  0  0
    8.7559   45.7892   34.9498 H   0  0  0  0  0  0  0  0  0  0  0  0
    8.0910   48.7781   31.1423 H   0  0  0  0  0  0  0  0  0  0  0  0
    6.9697   47.7825   30.1918 H   0  0  0  0  0  0  0  0  0  0  0  0
    4.9490   46.7991   31.8454 H   0  0  0  0  0  0  0  0  0  0  0  0
    4.6211   51.6249   32.9316 H   0  0  0  0  0  0  0  0  0  0  0  0
    2.8647   47.7236   32.7695 H   0  0  0  0  0  0  0  0  0  0  0  0
    2.6950   50.1347   33.2996 H   0  0  0  0  0  0  0  0  0  0  0  0
    9.8307   40.7395   31.7563 H   0  0  0  0  0  0  0  0  0  0  0  0
   11.3992   41.5455   31.4738 H   0  0  0  0  0  0  0  0  0  0  0  0
   11.6989   39.5091   30.3489 H   0  0  0  0  0  0  0  0  0  0  0  0
   10.1130   38.2589   32.6664 H   0  0  0  0  0  0  0  0  0  0  0  0
   13.6800   37.4628   31.2265 H   0  0  0  0  0  0  0  0  0  0  0  0
    8.8952   38.6908   30.8892 H   0  0  0  0  0  0  0  0  0  0  0  0
   11.2830   36.3060   32.4929 H   0  0  0  0  0  0  0  0  0  0  0  0
   11.8859   36.9589   29.7593 H   0  0  0  0  0  0  0  0  0  0  0  0
   12.3360   38.3600   34.7442 H   0  0  0  0  0  0  0  0  0  0  0  0
   16.7572   34.1793   32.4621 H   0  0  0  0  0  0  0  0  0  0  0  0
   16.6362   34.5318   37.1416 H   0  0  0  0  0  0  0  0  0  0  0  0
   15.3528   35.7356   37.5140 H   0  0  0  0  0  0  0  0  0  0  0  0
  1  2  2  0
  1  3  1  0
  3  4  1  0
  4  5  1  0
  6  1  1  0
  7  6  1  0
  6  8  1  0
  8  9  1  0
  9 10  1  0
  9 11  2  0
 10 12  1  0
 12 13  1  0
 13 14  2  0
 15 13  1  0
 14 16  1  0
 14 17  1  0
 18 15  2  0
 16 19  1  0
 16 20  2  0
 17 21  2  0
 21 18  1  0
  4 22  2  0
  4 23  1  0
 24 23  1  0
 24 25  1  0
 25 26  1  0
 25 27  1  0
 26 28  1  0
 27 29  1  0
 27 30  1  0
 30 28  1  0
 28 31  1  0
 30 32  1  0
 33 31  1  0
 34 31  1  0
 35 33  2  0
 33 36  1  0
 37 34  2  0
 38 35  1  0
 36 39  2  0
 36 37  1  0
 40 38  2  0
 40 39  1  0
 39 41  1  0
  6 42  1  6
  7 43  1  0
  7 44  1  0
  8 45  1  0
  8 46  1  0
 12 47  1  0
 12 48  1  0
 15 49  1  0
 17 50  1  0
 18 51  1  0
 21 52  1  0
 24 53  1  0
 24 54  1  0
 25 55  1  0
 27 56  1  0
 28 57  1  0
 29 58  1  0
 30 59  1  0
 32 60  1  0
 34 61  1  0
 38 62  1  0
 41 63  1  0
 41 64  1  0
M  CHG  3   5  -1  16   1  19  -1
M  END
>  <EmbedRMS>  (349) 
0.08803391011393272

$$$$

     RDKit          3D

 64 67  0  0  0  0  0  0  0  0999 V2000
   10.2839   43.7727   33.8123 C   0  0  0  0  0  0  0  0  0  0  0  0
   11.4081   43.5839   34.3635 O   0  0  0  0  0  0  0  0  0  0  0  0
    9.3736   42.7266   33.6932 O   0  0  0  0  0  0  0  0  0  0  0  0
    9.8856   41.2315   34.2840 P   0  0  0  0  0  5  0  0  0  0  0  0
   10.3629   41.4696   35.8750 O   0  0  0  0  0  1  0  0  0  0  0  0
    9.9493   45.1243   33.2666 C   0  0  2  0  0  0  0  0  0  0  0  0
   11.0732   46.0428   33.4607 N   0  0  0  0  0  0  0  0  0  0  0  0
    8.6947   45.7183   33.9384 C   0  0  0  0  0  0  0  0  0  0  0  0
    7.4450   44.9924   33.5432 C   0  0  0  0  0  0  0  0  0  0  0  0
    7.0007   43.9241   34.3259 O   0  0  0  0  0  0  0  0  0  0  0  0
    6.8371   45.3146   32.4862 O   0  0  0  0  0  0  0  0  0  0  0  0
    5.9231   43.0735   33.9449 C   0  0  0  0  0  0  0  0  0  0  0  0
    5.8728   41.8473   34.8293 C   0  0  0  0  0  0  0  0  0  0  0  0
    5.3420   40.6151   34.3604 C   0  0  0  0  0  0  0  0  0  0  0  0
    6.3644   41.9204   36.1484 C   0  0  0  0  0  0  0  0  0  0  0  0
    4.7397   40.4931   33.0600 N   0  0  0  0  0  4  0  0  0  0  0  0
    5.4014   39.4813   35.1895 C   0  0  0  0  0  0  0  0  0  0  0  0
    6.3972   40.7867   36.9609 C   0  0  0  0  0  0  0  0  0  0  0  0
    4.8090   39.2987   32.3802 O   0  0  0  0  0  1  0  0  0  0  0  0
    3.9921   41.3915   32.6216 O   0  0  0  0  0  0  0  0  0  0  0  0
    5.9280   39.5672   36.4784 C   0  0  0  0  0  0  0  0  0  0  0  0
    8.8072   40.1899   34.2072 O   0  0  0  0  0  0  0  0  0  0  0  0
   11.2374   40.7869   33.3700 O   0  0  0  0  0  0  0  0  0  0  0  0
   10.9164   40.6889   31.9967 C   0  0  0  0  0  0  0  0  0  0  0  0
   11.5272   39.3894   31.4374 C   0  0  0  0  0  0  0  0  0  0  0  0
   12.7511   39.0911   32.0838 O   0  0  0  0  0  0  0  0  0  0  0  0
   10.6121   38.1915   31.6454 C   0  0  0  0  0  0  0  0  0  0  0  0
   12.9429   37.6848   32.0300 C   0  0  0  0  0  0  0  0  0  0  0  0
    9.6069   38.0858   30.6605 O   0  0  0  0  0  0  0  0  0  0  0  0
   11.5843   37.0183   31.6882 C   0  0  0  0  0  0  0  0  0  0  0  0
   13.4901   37.2159   33.3256 N   0  0  0  0  0  0  0  0  0  0  0  0
   11.6201   36.3061   30.4695 O   0  0  0  0  0  0  0  0  0  0  0  0
   14.4763   36.3259   33.5739 C   0  0  0  0  0  0  0  0  0  0  0  0
   13.1184   37.6298   34.5710 C   0  0  0  0  0  0  0  0  0  0  0  0
   15.2066   35.6137   32.6742 N   0  0  0  0  0  0  0  0  0  0  0  0
   14.6742   36.2258   34.9191 C   0  0  0  0  0  0  0  0  0  0  0  0
   13.8239   37.0436   35.5802 N   0  0  0  0  0  0  0  0  0  0  0  0
   16.1644   34.7592   33.1540 C   0  0  0  0  0  0  0  0  0  0  0  0
   15.6520   35.3486   35.4121 C   0  0  0  0  0  0  0  0  0  0  0  0
   16.3804   34.6301   34.5032 N   0  0  0  0  0  0  0  0  0  0  0  0
   15.8939   35.1992   36.8088 N   0  0  0  0  0  0  0  0  0  0  0  0
    9.7628   45.0263   32.1741 H   0  0  0  0  0  0  0  0  0  0  0  0
   11.9102   45.6842   32.9445 H   0  0  0  0  0  0  0  0  0  0  0  0
   11.3136   46.1123   34.4774 H   0  0  0  0  0  0  0  0  0  0  0  0
    8.8045   45.6892   35.0447 H   0  0  0  0  0  0  0  0  0  0  0  0
    8.5901   46.7855   33.6430 H   0  0  0  0  0  0  0  0  0  0  0  0
    4.9646   43.6290   34.0247 H   0  0  0  0  0  0  0  0  0  0  0  0
    6.0840   42.7639   32.8896 H   0  0  0  0  0  0  0  0  0  0  0  0
    6.7419   42.8525   36.5494 H   0  0  0  0  0  0  0  0  0  0  0  0
    5.0152   38.5305   34.8449 H   0  0  0  0  0  0  0  0  0  0  0  0
    6.7928   40.8534   37.9663 H   0  0  0  0  0  0  0  0  0  0  0  0
    5.9589   38.6885   37.1097 H   0  0  0  0  0  0  0  0  0  0  0  0
   11.3843   41.5522   31.4768 H   0  0  0  0  0  0  0  0  0  0  0  0
    9.8263   40.7190   31.7587 H   0  0  0  0  0  0  0  0  0  0  0  0
   11.7319   39.5337   30.3520 H   0  0  0  0  0  0  0  0  0  0  0  0
   10.1213   38.2682   32.6414 H   0  0  0  0  0  0  0  0  0  0  0  0
   13.6881   37.4700   31.2324 H   0  0  0  0  0  0  0  0  0  0  0  0
   10.0255   38.1752   29.7658 H   0  0  0  0  0  0  0  0  0  0  0  0
   11.2793   36.3121   32.4918 H   0  0  0  0  0  0  0  0  0  0  0  0
   11.9870   36.9099   29.7717 H   0  0  0  0  0  0  0  0  0  0  0  0
   12.3374   38.3585   34.7470 H   0  0  0  0  0  0  0  0  0  0  0  0
   16.7578   34.1793   32.4607 H   0  0  0  0  0  0  0  0  0  0  0  0
   16.6261   34.5421   37.1580 H   0  0  0  0  0  0  0  0  0  0  0  0
   16.6261   34.5421   37.1580 H   0  0  0  0  0  0  0  0  0  0  0  0
  1  2  2  0
  1  3  1  0
  3  4  1  0
  4  5  1  0
  6  1  1  0
  7  6  1  0
  6  8  1  0
  8  9  1  0
  9 10  1  0
  9 11  2  0
 10 12  1  0
 12 13  1  0
 13 14  2  0
 15 13  1  0
 14 16  1  0
 14 17  1  0
 18 15  2  0
 16 19  1  0
 16 20  2  0
 17 21  2  0
 21 18  1  0
  4 22  2  0
  4 23  1  0
 24 23  1  0
 24 25  1  0
 25 26  1  0
 25 27  1  0
 26 28  1  0
 27 29  1  0
 27 30  1  0
 30 28  1  0
 28 31  1  0
 30 32  1  0
 33 31  1  0
 34 31  1  0
 35 33  2  0
 33 36  1  0
 37 34  2  0
 38 35  1  0
 36 39  2  0
 36 37  1  0
 40 38  2  0
 40 39  1  0
 39 41  1  0
  6 42  1  6
  7 43  1  0
  7 44  1  0
  8 45  1  0
  8 46  1  0
 12 47  1  0
 12 48  1  0
 15 49  1  0
 17 50  1  0
 18 51  1  0
 21 52  1  0
 24 53  1  0
 24 54  1  0
 25 55  1  0
 27 56  1  0
 28 57  1  0
 29 58  1  0
 30 59  1  0
 32 60  1  0
 34 61  1  0
 38 62  1  0
 41 63  1  0
 41 64  1  0
M  CHG  3   5  -1  16   1  19  -1
M  END
>  <EmbedRMS>  (350) 
0.08871927536874046

$$$$

     RDKit          3D

 64 67  0  0  0  0  0  0  0  0999 V2000
   10.2829   43.7708   33.8155 C   0  0  0  0  0  0  0  0  0  0  0  0
   11.4071   43.5804   34.3659 O   0  0  0  0  0  0  0  0  0  0  0  0
    9.3628   42.7318   33.7074 O   0  0  0  0  0  0  0  0  0  0  0  0
    9.8846   41.2325   34.2839 P   0  0  0  0  0  5  0  0  0  0  0  0
   10.3713   41.4638   35.8730 O   0  0  0  0  0  1  0  0  0  0  0  0
    9.9766   45.1046   33.2240 C   0  0  2  0  0  0  0  0  0  0  0  0
   11.0586   46.0575   33.4851 N   0  0  0  0  0  0  0  0  0  0  0  0
    8.6170   45.6686   33.6854 C   0  0  0  0  0  0  0  0  0  0  0  0
    8.4382   45.7254   35.1762 C   0  0  0  0  0  0  0  0  0  0  0  0
    7.3434   45.0772   35.7556 O   0  0  0  0  0  0  0  0  0  0  0  0
    9.2270   46.4064   35.8863 O   0  0  0  0  0  0  0  0  0  0  0  0
    7.0453   45.1587   37.1465 C   0  0  0  0  0  0  0  0  0  0  0  0
    5.7273   44.4784   37.4262 C   0  0  0  0  0  0  0  0  0  0  0  0
    5.4812   43.1291   37.0566 C   0  0  0  0  0  0  0  0  0  0  0  0
    4.6957   45.2228   38.0289 C   0  0  0  0  0  0  0  0  0  0  0  0
    6.5018   42.3102   36.4604 N   0  0  0  0  0  4  0  0  0  0  0  0
    4.2037   42.5804   37.2722 C   0  0  0  0  0  0  0  0  0  0  0  0
    3.4406   44.6539   38.2490 C   0  0  0  0  0  0  0  0  0  0  0  0
    7.7895   42.3431   36.9401 O   0  0  0  0  0  1  0  0  0  0  0  0
    6.1938   41.4342   35.6259 O   0  0  0  0  0  0  0  0  0  0  0  0
    3.1935   43.3371   37.8667 C   0  0  0  0  0  0  0  0  0  0  0  0
    8.8082   40.1889   34.2082 O   0  0  0  0  0  0  0  0  0  0  0  0
   11.2374   40.7918   33.3670 O   0  0  0  0  0  0  0  0  0  0  0  0
   10.9179   40.6896   31.9937 C   0  0  0  0  0  0  0  0  0  0  0  0
   11.5166   39.3801   31.4395 C   0  0  0  0  0  0  0  0  0  0  0  0
   12.7473   39.0864   32.0736 O   0  0  0  0  0  0  0  0  0  0  0  0
   10.6029   38.1890   31.6666 C   0  0  0  0  0  0  0  0  0  0  0  0
   12.9334   37.6799   32.0280 C   0  0  0  0  0  0  0  0  0  0  0  0
    9.6394   38.0774   30.6456 O   0  0  0  0  0  0  0  0  0  0  0  0
   11.5739   37.0154   31.7057 C   0  0  0  0  0  0  0  0  0  0  0  0
   13.4903   37.2180   33.3231 N   0  0  0  0  0  0  0  0  0  0  0  0
   11.6212   36.3376   30.4695 O   0  0  0  0  0  0  0  0  0  0  0  0
   14.4761   36.3274   33.5724 C   0  0  0  0  0  0  0  0  0  0  0  0
   13.1178   37.6317   34.5684 C   0  0  0  0  0  0  0  0  0  0  0  0
   15.2063   35.6140   32.6737 N   0  0  0  0  0  0  0  0  0  0  0  0
   14.6733   36.2278   34.9179 C   0  0  0  0  0  0  0  0  0  0  0  0
   13.8225   37.0459   35.5779 N   0  0  0  0  0  0  0  0  0  0  0  0
   16.1635   34.7595   33.1545 C   0  0  0  0  0  0  0  0  0  0  0  0
   15.6515   35.3494   35.4129 C   0  0  0  0  0  0  0  0  0  0  0  0
   16.3790   34.6311   34.5040 N   0  0  0  0  0  0  0  0  0  0  0  0
   15.9001   35.1935   36.8088 N   0  0  0  0  0  0  0  0  0  0  0  0
    9.9089   44.9632   32.1224 H   0  0  0  0  0  0  0  0  0  0  0  0
   11.2922   46.0843   34.5039 H   0  0  0  0  0  0  0  0  0  0  0  0
   11.9164   45.7494   32.9708 H   0  0  0  0  0  0  0  0  0  0  0  0
    7.8066   45.0413   33.2537 H   0  0  0  0  0  0  0  0  0  0  0  0
    8.4859   46.6919   33.2723 H   0  0  0  0  0  0  0  0  0  0  0  0
    7.0041   46.2300   37.4434 H   0  0  0  0  0  0  0  0  0  0  0  0
    7.8533   44.6854   37.7421 H   0  0  0  0  0  0  0  0  0  0  0  0
    4.8571   46.2531   38.3214 H   0  0  0  0  0  0  0  0  0  0  0  0
    3.9947   41.5551   36.9941 H   0  0  0  0  0  0  0  0  0  0  0  0
    2.6553   45.2385   38.7107 H   0  0  0  0  0  0  0  0  0  0  0  0
    2.2177   42.8998   38.0346 H   0  0  0  0  0  0  0  0  0  0  0  0
    9.8299   40.7390   31.7544 H   0  0  0  0  0  0  0  0  0  0  0  0
   11.3987   41.5438   31.4708 H   0  0  0  0  0  0  0  0  0  0  0  0
   11.6980   39.5038   30.3469 H   0  0  0  0  0  0  0  0  0  0  0  0
   10.1088   38.2631   32.6649 H   0  0  0  0  0  0  0  0  0  0  0  0
   13.6654   37.4547   31.2207 H   0  0  0  0  0  0  0  0  0  0  0  0
    8.8957   38.6888   30.8857 H   0  0  0  0  0  0  0  0  0  0  0  0
   11.2846   36.3060   32.5175 H   0  0  0  0  0  0  0  0  0  0  0  0
   10.8525   35.7094   30.4590 H   0  0  0  0  0  0  0  0  0  0  0  0
   12.3353   38.3589   34.7440 H   0  0  0  0  0  0  0  0  0  0  0  0
   16.7569   34.1788   32.4618 H   0  0  0  0  0  0  0  0  0  0  0  0
   15.3529   35.7359   37.5136 H   0  0  0  0  0  0  0  0  0  0  0  0
   16.6359   34.5317   37.1413 H   0  0  0  0  0  0  0  0  0  0  0  0
  1  2  2  0
  1  3  1  0
  3  4  1  0
  4  5  1  0
  6  1  1  0
  7  6  1  0
  6  8  1  0
  8  9  1  0
  9 10  1  0
  9 11  2  0
 10 12  1  0
 12 13  1  0
 13 14  2  0
 15 13  1  0
 14 16  1  0
 14 17  1  0
 18 15  2  0
 16 19  1  0
 16 20  2  0
 17 21  2  0
 21 18  1  0
  4 22  2  0
  4 23  1  0
 24 23  1  0
 24 25  1  0
 25 26  1  0
 25 27  1  0
 26 28  1  0
 27 29  1  0
 27 30  1  0
 30 28  1  0
 28 31  1  0
 30 32  1  0
 33 31  1  0
 34 31  1  0
 35 33  2  0
 33 36  1  0
 37 34  2  0
 38 35  1  0
 36 39  2  0
 36 37  1  0
 40 38  2  0
 40 39  1  0
 39 41  1  0
  6 42  1  6
  7 43  1  0
  7 44  1  0
  8 45  1  0
  8 46  1  0
 12 47  1  0
 12 48  1  0
 15 49  1  0
 17 50  1  0
 18 51  1  0
 21 52  1  0
 24 53  1  0
 24 54  1  0
 25 55  1  0
 27 56  1  0
 28 57  1  0
 29 58  1  0
 30 59  1  0
 32 60  1  0
 34 61  1  0
 38 62  1  0
 41 63  1  0
 41 64  1  0
M  CHG  3   5  -1  16   1  19  -1
M  END
>  <EmbedRMS>  (351) 
0.08992250648087671

$$$$

     RDKit          3D

 64 67  0  0  0  0  0  0  0  0999 V2000
   10.2863   43.7708   33.8103 C   0  0  0  0  0  0  0  0  0  0  0  0
   11.4101   43.5817   34.3618 O   0  0  0  0  0  0  0  0  0  0  0  0
    9.3669   42.7308   33.7021 O   0  0  0  0  0  0  0  0  0  0  0  0
    9.8849   41.2327   34.2838 P   0  0  0  0  0  5  0  0  0  0  0  0
   10.3653   41.4673   35.8745 O   0  0  0  0  0  1  0  0  0  0  0  0
    9.9617   45.1112   33.2461 C   0  0  2  0  0  0  0  0  0  0  0  0
   11.0649   46.0484   33.4749 N   0  0  0  0  0  0  0  0  0  0  0  0
    8.6625   45.6559   33.8633 C   0  0  0  0  0  0  0  0  0  0  0  0
    8.3020   46.9796   33.2647 C   0  0  0  0  0  0  0  0  0  0  0  0
    7.8941   47.0389   31.9278 O   0  0  0  0  0  0  0  0  0  0  0  0
    8.4048   48.0303   33.9551 O   0  0  0  0  0  0  0  0  0  0  0  0
    7.7077   48.2644   31.2228 C   0  0  0  0  0  0  0  0  0  0  0  0
    9.0300   48.9706   31.0214 C   0  0  0  0  0  0  0  0  0  0  0  0
   10.1519   48.3290   30.4261 C   0  0  0  0  0  0  0  0  0  0  0  0
    9.1625   50.2917   31.4873 C   0  0  0  0  0  0  0  0  0  0  0  0
   10.0841   46.9859   29.9113 N   0  0  0  0  0  4  0  0  0  0  0  0
   11.3743   49.0206   30.3524 C   0  0  0  0  0  0  0  0  0  0  0  0
   10.3809   50.9640   31.3879 C   0  0  0  0  0  0  0  0  0  0  0  0
   11.2141   46.2009   29.8893 O   0  0  0  0  0  1  0  0  0  0  0  0
    9.0578   46.5729   29.3341 O   0  0  0  0  0  0  0  0  0  0  0  0
   11.4857   50.3280   30.8267 C   0  0  0  0  0  0  0  0  0  0  0  0
    8.8074   40.1901   34.2072 O   0  0  0  0  0  0  0  0  0  0  0  0
   11.2378   40.7900   33.3683 O   0  0  0  0  0  0  0  0  0  0  0  0
   10.9186   40.6888   31.9946 C   0  0  0  0  0  0  0  0  0  0  0  0
   11.5180   39.3800   31.4397 C   0  0  0  0  0  0  0  0  0  0  0  0
   12.7483   39.0876   32.0750 O   0  0  0  0  0  0  0  0  0  0  0  0
   10.6053   38.1875   31.6656 C   0  0  0  0  0  0  0  0  0  0  0  0
   12.9360   37.6817   32.0288 C   0  0  0  0  0  0  0  0  0  0  0  0
    9.6423   38.0738   30.6445 O   0  0  0  0  0  0  0  0  0  0  0  0
   11.5765   37.0159   31.7046 C   0  0  0  0  0  0  0  0  0  0  0  0
   13.4908   37.2183   33.3237 N   0  0  0  0  0  0  0  0  0  0  0  0
   11.6103   36.3399   30.4680 O   0  0  0  0  0  0  0  0  0  0  0  0
   14.4762   36.3274   33.5728 C   0  0  0  0  0  0  0  0  0  0  0  0
   13.1181   37.6318   34.5689 C   0  0  0  0  0  0  0  0  0  0  0  0
   15.2063   35.6141   32.6738 N   0  0  0  0  0  0  0  0  0  0  0  0
   14.6733   36.2275   34.9182 C   0  0  0  0  0  0  0  0  0  0  0  0
   13.8226   37.0457   35.5783 N   0  0  0  0  0  0  0  0  0  0  0  0
   16.1635   34.7595   33.1546 C   0  0  0  0  0  0  0  0  0  0  0  0
   15.6515   35.3492   35.4130 C   0  0  0  0  0  0  0  0  0  0  0  0
   16.3791   34.6310   34.5041 N   0  0  0  0  0  0  0  0  0  0  0  0
   15.9002   35.1933   36.8089 N   0  0  0  0  0  0  0  0  0  0  0  0
    9.8150   44.9911   32.1500 H   0  0  0  0  0  0  0  0  0  0  0  0
   11.2743   46.1181   34.4983 H   0  0  0  0  0  0  0  0  0  0  0  0
   11.9217   45.7054   32.9814 H   0  0  0  0  0  0  0  0  0  0  0  0
    8.7767   45.7566   34.9656 H   0  0  0  0  0  0  0  0  0  0  0  0
    7.8272   44.9487   33.6694 H   0  0  0  0  0  0  0  0  0  0  0  0
    7.2483   48.0542   30.2353 H   0  0  0  0  0  0  0  0  0  0  0  0
    6.9831   48.8982   31.7798 H   0  0  0  0  0  0  0  0  0  0  0  0
    8.3231   50.8020   31.9434 H   0  0  0  0  0  0  0  0  0  0  0  0
   12.2435   48.5512   29.9095 H   0  0  0  0  0  0  0  0  0  0  0  0
   10.4701   51.9785   31.7545 H   0  0  0  0  0  0  0  0  0  0  0  0
   12.4311   50.8502   30.7555 H   0  0  0  0  0  0  0  0  0  0  0  0
    9.8306   40.7375   31.7548 H   0  0  0  0  0  0  0  0  0  0  0  0
   11.3990   41.5437   31.4724 H   0  0  0  0  0  0  0  0  0  0  0  0
   11.7002   39.5046   30.3472 H   0  0  0  0  0  0  0  0  0  0  0  0
   10.1104   38.2619   32.6636 H   0  0  0  0  0  0  0  0  0  0  0  0
   13.6696   37.4587   31.2222 H   0  0  0  0  0  0  0  0  0  0  0  0
    8.9000   38.6883   30.8812 H   0  0  0  0  0  0  0  0  0  0  0  0
   11.2690   36.3069   32.5091 H   0  0  0  0  0  0  0  0  0  0  0  0
   12.1427   35.5151   30.6154 H   0  0  0  0  0  0  0  0  0  0  0  0
   12.3359   38.3593   34.7445 H   0  0  0  0  0  0  0  0  0  0  0  0
   16.7569   34.1789   32.4618 H   0  0  0  0  0  0  0  0  0  0  0  0
   16.6361   34.5315   37.1413 H   0  0  0  0  0  0  0  0  0  0  0  0
   15.3530   35.7356   37.5137 H   0  0  0  0  0  0  0  0  0  0  0  0
  1  2  2  0
  1  3  1  0
  3  4  1  0
  4  5  1  0
  6  1  1  0
  7  6  1  0
  6  8  1  0
  8  9  1  0
  9 10  1  0
  9 11  2  0
 10 12  1  0
 12 13  1  0
 13 14  2  0
 15 13  1  0
 14 16  1  0
 14 17  1  0
 18 15  2  0
 16 19  1  0
 16 20  2  0
 17 21  2  0
 21 18  1  0
  4 22  2  0
  4 23  1  0
 24 23  1  0
 24 25  1  0
 25 26  1  0
 25 27  1  0
 26 28  1  0
 27 29  1  0
 27 30  1  0
 30 28  1  0
 28 31  1  0
 30 32  1  0
 33 31  1  0
 34 31  1  0
 35 33  2  0
 33 36  1  0
 37 34  2  0
 38 35  1  0
 36 39  2  0
 36 37  1  0
 40 38  2  0
 40 39  1  0
 39 41  1  0
  6 42  1  6
  7 43  1  0
  7 44  1  0
  8 45  1  0
  8 46  1  0
 12 47  1  0
 12 48  1  0
 15 49  1  0
 17 50  1  0
 18 51  1  0
 21 52  1  0
 24 53  1  0
 24 54  1  0
 25 55  1  0
 27 56  1  0
 28 57  1  0
 29 58  1  0
 30 59  1  0
 32 60  1  0
 34 61  1  0
 38 62  1  0
 41 63  1  0
 41 64  1  0
M  CHG  3   5  -1  16   1  19  -1
M  END
>  <EmbedRMS>  (352) 
0.0897998848203387

$$$$

     RDKit          3D

 64 67  0  0  0  0  0  0  0  0999 V2000
   10.2846   43.7741   33.8067 C   0  0  0  0  0  0  0  0  0  0  0  0
   11.4069   43.5900   34.3637 O   0  0  0  0  0  0  0  0  0  0  0  0
    9.3678   42.7312   33.6991 O   0  0  0  0  0  0  0  0  0  0  0  0
    9.8855   41.2344   34.2840 P   0  0  0  0  0  5  0  0  0  0  0  0
   10.3659   41.4698   35.8746 O   0  0  0  0  0  1  0  0  0  0  0  0
    9.9496   45.1163   33.2549 C   0  0  2  0  0  0  0  0  0  0  0  0
   11.0750   46.0287   33.4730 N   0  0  0  0  0  0  0  0  0  0  0  0
    8.6777   45.6517   33.9429 C   0  0  0  0  0  0  0  0  0  0  0  0
    8.2057   46.9318   33.3252 C   0  0  0  0  0  0  0  0  0  0  0  0
    8.2866   48.1213   34.0580 O   0  0  0  0  0  0  0  0  0  0  0  0
    7.7496   46.9291   32.1490 O   0  0  0  0  0  0  0  0  0  0  0  0
    7.9564   49.3963   33.5111 C   0  0  0  0  0  0  0  0  0  0  0  0
    9.0132   49.8415   32.5268 C   0  0  0  0  0  0  0  0  0  0  0  0
   10.3876   49.9349   32.8794 C   0  0  0  0  0  0  0  0  0  0  0  0
    8.6230   50.1207   31.2040 C   0  0  0  0  0  0  0  0  0  0  0  0
   10.8523   49.6715   34.2173 N   0  0  0  0  0  4  0  0  0  0  0  0
   11.3254   50.2761   31.8869 C   0  0  0  0  0  0  0  0  0  0  0  0
    9.5688   50.4721   30.2405 C   0  0  0  0  0  0  0  0  0  0  0  0
   10.1241   50.0799   35.3099 O   0  0  0  0  0  1  0  0  0  0  0  0
   11.9996   49.2148   34.4018 O   0  0  0  0  0  0  0  0  0  0  0  0
   10.9176   50.5453   30.5801 C   0  0  0  0  0  0  0  0  0  0  0  0
    8.8080   40.1914   34.2083 O   0  0  0  0  0  0  0  0  0  0  0  0
   11.2373   40.7904   33.3686 O   0  0  0  0  0  0  0  0  0  0  0  0
   10.9157   40.6897   31.9957 C   0  0  0  0  0  0  0  0  0  0  0  0
   11.5271   39.3897   31.4372 C   0  0  0  0  0  0  0  0  0  0  0  0
   12.7508   39.0915   32.0838 O   0  0  0  0  0  0  0  0  0  0  0  0
   10.6122   38.1916   31.6452 C   0  0  0  0  0  0  0  0  0  0  0  0
   12.9429   37.6852   32.0295 C   0  0  0  0  0  0  0  0  0  0  0  0
    9.6070   38.0858   30.6603 O   0  0  0  0  0  0  0  0  0  0  0  0
   11.5845   37.0185   31.6879 C   0  0  0  0  0  0  0  0  0  0  0  0
   13.4899   37.2163   33.3250 N   0  0  0  0  0  0  0  0  0  0  0  0
   11.6201   36.3062   30.4693 O   0  0  0  0  0  0  0  0  0  0  0  0
   14.4759   36.3263   33.5738 C   0  0  0  0  0  0  0  0  0  0  0  0
   13.1176   37.6307   34.5699 C   0  0  0  0  0  0  0  0  0  0  0  0
   15.2065   35.6139   32.6746 N   0  0  0  0  0  0  0  0  0  0  0  0
   14.6731   36.2267   34.9191 C   0  0  0  0  0  0  0  0  0  0  0  0
   13.8224   37.0450   35.5792 N   0  0  0  0  0  0  0  0  0  0  0  0
   16.1640   34.7596   33.1551 C   0  0  0  0  0  0  0  0  0  0  0  0
   15.6518   35.3489   35.4136 C   0  0  0  0  0  0  0  0  0  0  0  0
   16.3795   34.6310   34.5046 N   0  0  0  0  0  0  0  0  0  0  0  0
   15.9006   35.1931   36.8094 N   0  0  0  0  0  0  0  0  0  0  0  0
    9.7642   45.0049   32.1624 H   0  0  0  0  0  0  0  0  0  0  0  0
   11.8995   45.6716   32.9360 H   0  0  0  0  0  0  0  0  0  0  0  0
   10.8486   46.9486   33.0315 H   0  0  0  0  0  0  0  0  0  0  0  0
    7.8561   44.9074   33.8569 H   0  0  0  0  0  0  0  0  0  0  0  0
    8.8759   45.8141   35.0253 H   0  0  0  0  0  0  0  0  0  0  0  0
    6.9500   49.3442   33.0402 H   0  0  0  0  0  0  0  0  0  0  0  0
    7.8736   50.1401   34.3289 H   0  0  0  0  0  0  0  0  0  0  0  0
    7.5825   50.0543   30.9106 H   0  0  0  0  0  0  0  0  0  0  0  0
   12.3780   50.3486   32.1298 H   0  0  0  0  0  0  0  0  0  0  0  0
    9.2552   50.6808   29.2258 H   0  0  0  0  0  0  0  0  0  0  0  0
   11.6498   50.8135   29.8295 H   0  0  0  0  0  0  0  0  0  0  0  0
    9.8256   40.7191   31.7584 H   0  0  0  0  0  0  0  0  0  0  0  0
   11.3828   41.5525   31.4742 H   0  0  0  0  0  0  0  0  0  0  0  0
   11.7320   39.5336   30.3518 H   0  0  0  0  0  0  0  0  0  0  0  0
   10.1215   38.2683   32.6412 H   0  0  0  0  0  0  0  0  0  0  0  0
   13.6882   37.4706   31.2319 H   0  0  0  0  0  0  0  0  0  0  0  0
   10.0256   38.1750   29.7656 H   0  0  0  0  0  0  0  0  0  0  0  0
   11.2795   36.3123   32.4915 H   0  0  0  0  0  0  0  0  0  0  0  0
   11.9872   36.9099   29.7714 H   0  0  0  0  0  0  0  0  0  0  0  0
   12.3365   38.3595   34.7453 H   0  0  0  0  0  0  0  0  0  0  0  0
   16.7577   34.1794   32.4622 H   0  0  0  0  0  0  0  0  0  0  0  0
   15.3532   35.7351   37.5144 H   0  0  0  0  0  0  0  0  0  0  0  0
   16.6368   34.5316   37.1418 H   0  0  0  0  0  0  0  0  0  0  0  0
  1  2  2  0
  1  3  1  0
  3  4  1  0
  4  5  1  0
  6  1  1  0
  7  6  1  0
  6  8  1  0
  8  9  1  0
  9 10  1  0
  9 11  2  0
 10 12  1  0
 12 13  1  0
 13 14  2  0
 15 13  1  0
 14 16  1  0
 14 17  1  0
 18 15  2  0
 16 19  1  0
 16 20  2  0
 17 21  2  0
 21 18  1  0
  4 22  2  0
  4 23  1  0
 24 23  1  0
 24 25  1  0
 25 26  1  0
 25 27  1  0
 26 28  1  0
 27 29  1  0
 27 30  1  0
 30 28  1  0
 28 31  1  0
 30 32  1  0
 33 31  1  0
 34 31  1  0
 35 33  2  0
 33 36  1  0
 37 34  2  0
 38 35  1  0
 36 39  2  0
 36 37  1  0
 40 38  2  0
 40 39  1  0
 39 41  1  0
  6 42  1  6
  7 43  1  0
  7 44  1  0
  8 45  1  0
  8 46  1  0
 12 47  1  0
 12 48  1  0
 15 49  1  0
 17 50  1  0
 18 51  1  0
 21 52  1  0
 24 53  1  0
 24 54  1  0
 25 55  1  0
 27 56  1  0
 28 57  1  0
 29 58  1  0
 30 59  1  0
 32 60  1  0
 34 61  1  0
 38 62  1  0
 41 63  1  0
 41 64  1  0
M  CHG  3   5  -1  16   1  19  -1
M  END
>  <EmbedRMS>  (353) 
0.08708475990680377

$$$$

     RDKit          3D

 64 67  0  0  0  0  0  0  0  0999 V2000
   10.2846   43.7742   33.8068 C   0  0  0  0  0  0  0  0  0  0  0  0
   11.4070   43.5902   34.3636 O   0  0  0  0  0  0  0  0  0  0  0  0
    9.3681   42.7310   33.6989 O   0  0  0  0  0  0  0  0  0  0  0  0
    9.8860   41.2342   34.2839 P   0  0  0  0  0  5  0  0  0  0  0  0
   10.3655   41.4697   35.8747 O   0  0  0  0  0  1  0  0  0  0  0  0
    9.9494   45.1164   33.2548 C   0  0  2  0  0  0  0  0  0  0  0  0
   11.0751   46.0281   33.4733 N   0  0  0  0  0  0  0  0  0  0  0  0
    8.6785   45.6531   33.9433 C   0  0  0  0  0  0  0  0  0  0  0  0
    8.1851   46.9153   33.3044 C   0  0  0  0  0  0  0  0  0  0  0  0
    8.2837   48.1240   33.9997 O   0  0  0  0  0  0  0  0  0  0  0  0
    7.6881   46.8783   32.1454 O   0  0  0  0  0  0  0  0  0  0  0  0
    7.8141   49.3575   33.4657 C   0  0  0  0  0  0  0  0  0  0  0  0
    7.9993   50.4494   34.4867 C   0  0  0  0  0  0  0  0  0  0  0  0
    9.1921   51.2146   34.5736 C   0  0  0  0  0  0  0  0  0  0  0  0
    6.9479   50.7104   35.3838 C   0  0  0  0  0  0  0  0  0  0  0  0
   10.3232   50.9538   33.7240 N   0  0  0  0  0  4  0  0  0  0  0  0
    9.2701   52.2555   35.5173 C   0  0  0  0  0  0  0  0  0  0  0  0
    7.0523   51.7362   36.3241 C   0  0  0  0  0  0  0  0  0  0  0  0
   10.7107   49.6620   33.4550 O   0  0  0  0  0  1  0  0  0  0  0  0
   11.0710   51.8898   33.3726 O   0  0  0  0  0  0  0  0  0  0  0  0
    8.2080   52.5124   36.3854 C   0  0  0  0  0  0  0  0  0  0  0  0
    8.8086   40.1912   34.2076 O   0  0  0  0  0  0  0  0  0  0  0  0
   11.2386   40.7906   33.3693 O   0  0  0  0  0  0  0  0  0  0  0  0
   10.9192   40.6905   31.9959 C   0  0  0  0  0  0  0  0  0  0  0  0
   11.5177   39.3823   31.4410 C   0  0  0  0  0  0  0  0  0  0  0  0
   12.7496   39.0891   32.0754 O   0  0  0  0  0  0  0  0  0  0  0  0
   10.6037   38.1899   31.6659 C   0  0  0  0  0  0  0  0  0  0  0  0
   12.9401   37.6833   32.0276 C   0  0  0  0  0  0  0  0  0  0  0  0
    9.6377   38.0785   30.6474 O   0  0  0  0  0  0  0  0  0  0  0  0
   11.5803   37.0203   31.6937 C   0  0  0  0  0  0  0  0  0  0  0  0
   13.4902   37.2177   33.3237 N   0  0  0  0  0  0  0  0  0  0  0  0
   11.6117   36.3192   30.4680 O   0  0  0  0  0  0  0  0  0  0  0  0
   14.4759   36.3271   33.5731 C   0  0  0  0  0  0  0  0  0  0  0  0
   13.1176   37.6317   34.5688 C   0  0  0  0  0  0  0  0  0  0  0  0
   15.2064   35.6141   32.6742 N   0  0  0  0  0  0  0  0  0  0  0  0
   14.6729   36.2274   34.9184 C   0  0  0  0  0  0  0  0  0  0  0  0
   13.8221   37.0457   35.5783 N   0  0  0  0  0  0  0  0  0  0  0  0
   16.1637   34.7596   33.1549 C   0  0  0  0  0  0  0  0  0  0  0  0
   15.6514   35.3493   35.4133 C   0  0  0  0  0  0  0  0  0  0  0  0
   16.3791   34.6312   34.5044 N   0  0  0  0  0  0  0  0  0  0  0  0
   15.9001   35.1935   36.8091 N   0  0  0  0  0  0  0  0  0  0  0  0
    9.7639   45.0047   32.1623 H   0  0  0  0  0  0  0  0  0  0  0  0
   10.8445   46.9525   33.0439 H   0  0  0  0  0  0  0  0  0  0  0  0
   11.8961   45.6760   32.9277 H   0  0  0  0  0  0  0  0  0  0  0  0
    8.8840   45.8386   35.0205 H   0  0  0  0  0  0  0  0  0  0  0  0
    7.8635   44.8990   33.8806 H   0  0  0  0  0  0  0  0  0  0  0  0
    6.7371   49.2605   33.2043 H   0  0  0  0  0  0  0  0  0  0  0  0
    8.3526   49.6001   32.5249 H   0  0  0  0  0  0  0  0  0  0  0  0
    6.0376   50.1242   35.3477 H   0  0  0  0  0  0  0  0  0  0  0  0
   10.1670   52.8569   35.5960 H   0  0  0  0  0  0  0  0  0  0  0  0
    6.2329   51.9324   37.0037 H   0  0  0  0  0  0  0  0  0  0  0  0
    8.2853   53.3097   37.1134 H   0  0  0  0  0  0  0  0  0  0  0  0
    9.8313   40.7397   31.7557 H   0  0  0  0  0  0  0  0  0  0  0  0
   11.4002   41.5453   31.4742 H   0  0  0  0  0  0  0  0  0  0  0  0
   11.6991   39.5089   30.3487 H   0  0  0  0  0  0  0  0  0  0  0  0
   10.1131   38.2590   32.6664 H   0  0  0  0  0  0  0  0  0  0  0  0
   13.6801   37.4625   31.2265 H   0  0  0  0  0  0  0  0  0  0  0  0
    8.8953   38.6909   30.8891 H   0  0  0  0  0  0  0  0  0  0  0  0
   11.2830   36.3060   32.4929 H   0  0  0  0  0  0  0  0  0  0  0  0
   11.8859   36.9588   29.7593 H   0  0  0  0  0  0  0  0  0  0  0  0
   12.3360   38.3600   34.7441 H   0  0  0  0  0  0  0  0  0  0  0  0
   16.7572   34.1792   32.4621 H   0  0  0  0  0  0  0  0  0  0  0  0
   16.6362   34.5318   37.1416 H   0  0  0  0  0  0  0  0  0  0  0  0
   15.3528   35.7356   37.5140 H   0  0  0  0  0  0  0  0  0  0  0  0
  1  2  2  0
  1  3  1  0
  3  4  1  0
  4  5  1  0
  6  1  1  0
  7  6  1  0
  6  8  1  0
  8  9  1  0
  9 10  1  0
  9 11  2  0
 10 12  1  0
 12 13  1  0
 13 14  2  0
 15 13  1  0
 14 16  1  0
 14 17  1  0
 18 15  2  0
 16 19  1  0
 16 20  2  0
 17 21  2  0
 21 18  1  0
  4 22  2  0
  4 23  1  0
 24 23  1  0
 24 25  1  0
 25 26  1  0
 25 27  1  0
 26 28  1  0
 27 29  1  0
 27 30  1  0
 30 28  1  0
 28 31  1  0
 30 32  1  0
 33 31  1  0
 34 31  1  0
 35 33  2  0
 33 36  1  0
 37 34  2  0
 38 35  1  0
 36 39  2  0
 36 37  1  0
 40 38  2  0
 40 39  1  0
 39 41  1  0
  6 42  1  6
  7 43  1  0
  7 44  1  0
  8 45  1  0
  8 46  1  0
 12 47  1  0
 12 48  1  0
 15 49  1  0
 17 50  1  0
 18 51  1  0
 21 52  1  0
 24 53  1  0
 24 54  1  0
 25 55  1  0
 27 56  1  0
 28 57  1  0
 29 58  1  0
 30 59  1  0
 32 60  1  0
 34 61  1  0
 38 62  1  0
 41 63  1  0
 41 64  1  0
M  CHG  3   5  -1  16   1  19  -1
M  END
>  <EmbedRMS>  (354) 
0.08839878124645685

$$$$

     RDKit          3D

 64 67  0  0  0  0  0  0  0  0999 V2000
   10.2842   43.7744   33.8075 C   0  0  0  0  0  0  0  0  0  0  0  0
   11.4068   43.5905   34.3640 O   0  0  0  0  0  0  0  0  0  0  0  0
    9.3679   42.7311   33.6991 O   0  0  0  0  0  0  0  0  0  0  0  0
    9.8863   41.2340   34.2827 P   0  0  0  0  0  5  0  0  0  0  0  0
   10.3671   41.4691   35.8733 O   0  0  0  0  0  1  0  0  0  0  0  0
    9.9503   45.1152   33.2526 C   0  0  2  0  0  0  0  0  0  0  0  0
   11.0748   46.0281   33.4740 N   0  0  0  0  0  0  0  0  0  0  0  0
    8.6752   45.6538   33.9318 C   0  0  0  0  0  0  0  0  0  0  0  0
    8.1791   46.8967   33.2595 C   0  0  0  0  0  0  0  0  0  0  0  0
    7.7155   46.8233   31.9438 O   0  0  0  0  0  0  0  0  0  0  0  0
    8.2028   47.9980   33.8741 O   0  0  0  0  0  0  0  0  0  0  0  0
    7.3028   47.9686   31.2055 C   0  0  0  0  0  0  0  0  0  0  0  0
    6.9777   47.5683   29.7882 C   0  0  0  0  0  0  0  0  0  0  0  0
    7.8984   46.8514   28.9764 C   0  0  0  0  0  0  0  0  0  0  0  0
    5.7097   47.8893   29.2689 C   0  0  0  0  0  0  0  0  0  0  0  0
    9.2180   46.5122   29.4413 N   0  0  0  0  0  4  0  0  0  0  0  0
    7.5047   46.4494   27.6867 C   0  0  0  0  0  0  0  0  0  0  0  0
    5.3464   47.4944   27.9808 C   0  0  0  0  0  0  0  0  0  0  0  0
    9.9605   47.4138   30.1676 O   0  0  0  0  0  1  0  0  0  0  0  0
    9.7654   45.4585   29.0555 O   0  0  0  0  0  0  0  0  0  0  0  0
    6.2399   46.7716   27.1933 C   0  0  0  0  0  0  0  0  0  0  0  0
    8.8084   40.1915   34.2077 O   0  0  0  0  0  0  0  0  0  0  0  0
   11.2377   40.7905   33.3656 O   0  0  0  0  0  0  0  0  0  0  0  0
   10.9146   40.6851   31.9928 C   0  0  0  0  0  0  0  0  0  0  0  0
   11.5167   39.3773   31.4391 C   0  0  0  0  0  0  0  0  0  0  0  0
   12.7473   39.0854   32.0738 O   0  0  0  0  0  0  0  0  0  0  0  0
   10.6047   38.1868   31.6669 C   0  0  0  0  0  0  0  0  0  0  0  0
   12.9346   37.6790   32.0282 C   0  0  0  0  0  0  0  0  0  0  0  0
    9.6378   38.0918   30.6488 O   0  0  0  0  0  0  0  0  0  0  0  0
   11.5761   37.0129   31.7057 C   0  0  0  0  0  0  0  0  0  0  0  0
   13.4909   37.2177   33.3233 N   0  0  0  0  0  0  0  0  0  0  0  0
   11.6233   36.3371   30.4684 O   0  0  0  0  0  0  0  0  0  0  0  0
   14.4765   36.3271   33.5727 C   0  0  0  0  0  0  0  0  0  0  0  0
   13.1182   37.6316   34.5685 C   0  0  0  0  0  0  0  0  0  0  0  0
   15.2066   35.6137   32.6739 N   0  0  0  0  0  0  0  0  0  0  0  0
   14.6736   36.2276   34.9182 C   0  0  0  0  0  0  0  0  0  0  0  0
   13.8227   37.0458   35.5781 N   0  0  0  0  0  0  0  0  0  0  0  0
   16.1638   34.7593   33.1548 C   0  0  0  0  0  0  0  0  0  0  0  0
   15.6517   35.3493   35.4131 C   0  0  0  0  0  0  0  0  0  0  0  0
   16.3792   34.6309   34.5043 N   0  0  0  0  0  0  0  0  0  0  0  0
   15.9002   35.1934   36.8090 N   0  0  0  0  0  0  0  0  0  0  0  0
    9.7716   44.9996   32.1593 H   0  0  0  0  0  0  0  0  0  0  0  0
   11.8929   45.6839   32.9190 H   0  0  0  0  0  0  0  0  0  0  0  0
   10.8403   46.9590   33.0600 H   0  0  0  0  0  0  0  0  0  0  0  0
    8.8758   45.8552   35.0076 H   0  0  0  0  0  0  0  0  0  0  0  0
    7.8640   44.8959   33.8740 H   0  0  0  0  0  0  0  0  0  0  0  0
    6.4186   48.4180   31.7085 H   0  0  0  0  0  0  0  0  0  0  0  0
    8.1061   48.7352   31.1984 H   0  0  0  0  0  0  0  0  0  0  0  0
    4.9925   48.4394   29.8656 H   0  0  0  0  0  0  0  0  0  0  0  0
    8.1879   45.8977   27.0532 H   0  0  0  0  0  0  0  0  0  0  0  0
    4.3666   47.7446   27.5947 H   0  0  0  0  0  0  0  0  0  0  0  0
    5.9538   46.4631   26.1960 H   0  0  0  0  0  0  0  0  0  0  0  0
   11.3875   41.5416   31.4664 H   0  0  0  0  0  0  0  0  0  0  0  0
    9.8246   40.7214   31.7562 H   0  0  0  0  0  0  0  0  0  0  0  0
   11.6988   39.5011   30.3465 H   0  0  0  0  0  0  0  0  0  0  0  0
   10.1096   38.2773   32.6628 H   0  0  0  0  0  0  0  0  0  0  0  0
   13.6672   37.4543   31.2212 H   0  0  0  0  0  0  0  0  0  0  0  0
    8.9779   37.4159   30.9534 H   0  0  0  0  0  0  0  0  0  0  0  0
   11.2860   36.3042   32.5177 H   0  0  0  0  0  0  0  0  0  0  0  0
   10.8689   35.6919   30.4657 H   0  0  0  0  0  0  0  0  0  0  0  0
   12.3356   38.3587   34.7439 H   0  0  0  0  0  0  0  0  0  0  0  0
   16.7572   34.1786   32.4621 H   0  0  0  0  0  0  0  0  0  0  0  0
   15.3530   35.7358   37.5138 H   0  0  0  0  0  0  0  0  0  0  0  0
   16.6361   34.5316   37.1415 H   0  0  0  0  0  0  0  0  0  0  0  0
  1  2  2  0
  1  3  1  0
  3  4  1  0
  4  5  1  0
  6  1  1  0
  7  6  1  0
  6  8  1  0
  8  9  1  0
  9 10  1  0
  9 11  2  0
 10 12  1  0
 12 13  1  0
 13 14  2  0
 15 13  1  0
 14 16  1  0
 14 17  1  0
 18 15  2  0
 16 19  1  0
 16 20  2  0
 17 21  2  0
 21 18  1  0
  4 22  2  0
  4 23  1  0
 24 23  1  0
 24 25  1  0
 25 26  1  0
 25 27  1  0
 26 28  1  0
 27 29  1  0
 27 30  1  0
 30 28  1  0
 28 31  1  0
 30 32  1  0
 33 31  1  0
 34 31  1  0
 35 33  2  0
 33 36  1  0
 37 34  2  0
 38 35  1  0
 36 39  2  0
 36 37  1  0
 40 38  2  0
 40 39  1  0
 39 41  1  0
  6 42  1  6
  7 43  1  0
  7 44  1  0
  8 45  1  0
  8 46  1  0
 12 47  1  0
 12 48  1  0
 15 49  1  0
 17 50  1  0
 18 51  1  0
 21 52  1  0
 24 53  1  0
 24 54  1  0
 25 55  1  0
 27 56  1  0
 28 57  1  0
 29 58  1  0
 30 59  1  0
 32 60  1  0
 34 61  1  0
 38 62  1  0
 41 63  1  0
 41 64  1  0
M  CHG  3   5  -1  16   1  19  -1
M  END
>  <EmbedRMS>  (355) 
0.08902316600762622

$$$$

     RDKit          3D

 64 67  0  0  0  0  0  0  0  0999 V2000
   10.2848   43.7726   33.8069 C   0  0  0  0  0  0  0  0  0  0  0  0
   11.4104   43.5874   34.3563 O   0  0  0  0  0  0  0  0  0  0  0  0
    9.3663   42.7314   33.7016 O   0  0  0  0  0  0  0  0  0  0  0  0
    9.8851   41.2342   34.2844 P   0  0  0  0  0  5  0  0  0  0  0  0
   10.3661   41.4696   35.8747 O   0  0  0  0  0  1  0  0  0  0  0  0
    9.9583   45.1107   33.2437 C   0  0  2  0  0  0  0  0  0  0  0  0
   11.0676   46.0367   33.4846 N   0  0  0  0  0  0  0  0  0  0  0  0
    8.6195   45.6578   33.7890 C   0  0  0  0  0  0  0  0  0  0  0  0
    8.6090   45.8036   35.2821 C   0  0  0  0  0  0  0  0  0  0  0  0
    9.0065   47.0134   35.8574 O   0  0  0  0  0  0  0  0  0  0  0  0
    8.2701   44.8276   36.0060 O   0  0  0  0  0  0  0  0  0  0  0  0
    9.0610   47.2147   37.2674 C   0  0  0  0  0  0  0  0  0  0  0  0
    9.5301   48.6139   37.5985 C   0  0  0  0  0  0  0  0  0  0  0  0
   10.1879   48.9055   38.8244 C   0  0  0  0  0  0  0  0  0  0  0  0
    9.2866   49.6627   36.6889 C   0  0  0  0  0  0  0  0  0  0  0  0
   10.3793   47.9060   39.8413 N   0  0  0  0  0  4  0  0  0  0  0  0
   10.6575   50.2097   39.0592 C   0  0  0  0  0  0  0  0  0  0  0  0
    9.7438   50.9548   36.9511 C   0  0  0  0  0  0  0  0  0  0  0  0
   11.4756   47.9714   40.6703 O   0  0  0  0  0  1  0  0  0  0  0  0
    9.4692   47.0957   40.1122 O   0  0  0  0  0  0  0  0  0  0  0  0
   10.4382   51.2251   38.1280 C   0  0  0  0  0  0  0  0  0  0  0  0
    8.8077   40.1912   34.2089 O   0  0  0  0  0  0  0  0  0  0  0  0
   11.2368   40.7904   33.3681 O   0  0  0  0  0  0  0  0  0  0  0  0
   10.9150   40.6882   31.9950 C   0  0  0  0  0  0  0  0  0  0  0  0
   11.5259   39.3871   31.4366 C   0  0  0  0  0  0  0  0  0  0  0  0
   12.7490   39.0894   32.0820 O   0  0  0  0  0  0  0  0  0  0  0  0
   10.6122   38.1893   31.6461 C   0  0  0  0  0  0  0  0  0  0  0  0
   12.9373   37.6828   32.0301 C   0  0  0  0  0  0  0  0  0  0  0  0
    9.6150   38.0838   30.6538 O   0  0  0  0  0  0  0  0  0  0  0  0
   11.5793   37.0137   31.7014 C   0  0  0  0  0  0  0  0  0  0  0  0
   13.4906   37.2170   33.3242 N   0  0  0  0  0  0  0  0  0  0  0  0
   11.6217   36.3253   30.4725 O   0  0  0  0  0  0  0  0  0  0  0  0
   14.4763   36.3266   33.5731 C   0  0  0  0  0  0  0  0  0  0  0  0
   13.1182   37.6308   34.5694 C   0  0  0  0  0  0  0  0  0  0  0  0
   15.2065   35.6137   32.6740 N   0  0  0  0  0  0  0  0  0  0  0  0
   14.6735   36.2270   34.9185 C   0  0  0  0  0  0  0  0  0  0  0  0
   13.8229   37.0451   35.5787 N   0  0  0  0  0  0  0  0  0  0  0  0
   16.1639   34.7593   33.1547 C   0  0  0  0  0  0  0  0  0  0  0  0
   15.6519   35.3489   35.4132 C   0  0  0  0  0  0  0  0  0  0  0  0
   16.3794   34.6308   34.5042 N   0  0  0  0  0  0  0  0  0  0  0  0
   15.9006   35.1931   36.8090 N   0  0  0  0  0  0  0  0  0  0  0  0
    9.8491   44.9837   32.1444 H   0  0  0  0  0  0  0  0  0  0  0  0
   11.1644   46.2260   34.5087 H   0  0  0  0  0  0  0  0  0  0  0  0
   10.8514   46.9477   33.0182 H   0  0  0  0  0  0  0  0  0  0  0  0
    8.4129   46.6480   33.3287 H   0  0  0  0  0  0  0  0  0  0  0  0
    7.7911   44.9821   33.4827 H   0  0  0  0  0  0  0  0  0  0  0  0
    8.0513   47.0599   37.7048 H   0  0  0  0  0  0  0  0  0  0  0  0
    9.7651   46.4674   37.6923 H   0  0  0  0  0  0  0  0  0  0  0  0
    8.7498   49.4836   35.7658 H   0  0  0  0  0  0  0  0  0  0  0  0
   11.1720   50.4486   39.9813 H   0  0  0  0  0  0  0  0  0  0  0  0
    9.5611   51.7481   36.2377 H   0  0  0  0  0  0  0  0  0  0  0  0
   10.7943   52.2277   38.3271 H   0  0  0  0  0  0  0  0  0  0  0  0
   11.3820   41.5504   31.4726 H   0  0  0  0  0  0  0  0  0  0  0  0
    9.8248   40.7178   31.7584 H   0  0  0  0  0  0  0  0  0  0  0  0
   11.7289   39.5288   30.3505 H   0  0  0  0  0  0  0  0  0  0  0  0
   10.1138   38.2718   32.6379 H   0  0  0  0  0  0  0  0  0  0  0  0
   13.6725   37.4638   31.2240 H   0  0  0  0  0  0  0  0  0  0  0  0
   10.0536   38.1085   29.7638 H   0  0  0  0  0  0  0  0  0  0  0  0
   11.2646   36.3134   32.5107 H   0  0  0  0  0  0  0  0  0  0  0  0
   12.1551   35.5033   30.6315 H   0  0  0  0  0  0  0  0  0  0  0  0
   12.3362   38.3586   34.7451 H   0  0  0  0  0  0  0  0  0  0  0  0
   16.7573   34.1788   32.4619 H   0  0  0  0  0  0  0  0  0  0  0  0
   15.3533   35.7353   37.5139 H   0  0  0  0  0  0  0  0  0  0  0  0
   16.6366   34.5314   37.1415 H   0  0  0  0  0  0  0  0  0  0  0  0
  1  2  2  0
  1  3  1  0
  3  4  1  0
  4  5  1  0
  6  1  1  0
  7  6  1  0
  6  8  1  0
  8  9  1  0
  9 10  1  0
  9 11  2  0
 10 12  1  0
 12 13  1  0
 13 14  2  0
 15 13  1  0
 14 16  1  0
 14 17  1  0
 18 15  2  0
 16 19  1  0
 16 20  2  0
 17 21  2  0
 21 18  1  0
  4 22  2  0
  4 23  1  0
 24 23  1  0
 24 25  1  0
 25 26  1  0
 25 27  1  0
 26 28  1  0
 27 29  1  0
 27 30  1  0
 30 28  1  0
 28 31  1  0
 30 32  1  0
 33 31  1  0
 34 31  1  0
 35 33  2  0
 33 36  1  0
 37 34  2  0
 38 35  1  0
 36 39  2  0
 36 37  1  0
 40 38  2  0
 40 39  1  0
 39 41  1  0
  6 42  1  6
  7 43  1  0
  7 44  1  0
  8 45  1  0
  8 46  1  0
 12 47  1  0
 12 48  1  0
 15 49  1  0
 17 50  1  0
 18 51  1  0
 21 52  1  0
 24 53  1  0
 24 54  1  0
 25 55  1  0
 27 56  1  0
 28 57  1  0
 29 58  1  0
 30 59  1  0
 32 60  1  0
 34 61  1  0
 38 62  1  0
 41 63  1  0
 41 64  1  0
M  CHG  3   5  -1  16   1  19  -1
M  END
>  <EmbedRMS>  (356) 
0.08779975155905333

$$$$

     RDKit          3D

 64 67  0  0  0  0  0  0  0  0999 V2000
   10.2841   43.7719   33.8122 C   0  0  0  0  0  0  0  0  0  0  0  0
   11.4081   43.5829   34.3636 O   0  0  0  0  0  0  0  0  0  0  0  0
    9.3690   42.7287   33.6997 O   0  0  0  0  0  0  0  0  0  0  0  0
    9.8851   41.2322   34.2846 P   0  0  0  0  0  5  0  0  0  0  0  0
   10.3650   41.4682   35.8751 O   0  0  0  0  0  1  0  0  0  0  0  0
    9.9577   45.1175   33.2506 C   0  0  2  0  0  0  0  0  0  0  0  0
   11.0687   46.0456   33.4703 N   0  0  0  0  0  0  0  0  0  0  0  0
    8.6781   45.7019   33.8781 C   0  0  0  0  0  0  0  0  0  0  0  0
    7.4546   44.9364   33.4748 C   0  0  0  0  0  0  0  0  0  0  0  0
    7.0413   44.9549   32.1380 O   0  0  0  0  0  0  0  0  0  0  0  0
    6.8211   44.2698   34.3375 O   0  0  0  0  0  0  0  0  0  0  0  0
    5.9510   44.1812   31.6394 C   0  0  0  0  0  0  0  0  0  0  0  0
    4.6360   44.6701   32.2031 C   0  0  0  0  0  0  0  0  0  0  0  0
    3.6835   43.7995   32.7945 C   0  0  0  0  0  0  0  0  0  0  0  0
    4.3139   46.0300   32.0431 C   0  0  0  0  0  0  0  0  0  0  0  0
    3.9542   42.4039   32.9929 N   0  0  0  0  0  4  0  0  0  0  0  0
    2.4389   44.3136   33.1978 C   0  0  0  0  0  0  0  0  0  0  0  0
    3.0795   46.5253   32.4658 C   0  0  0  0  0  0  0  0  0  0  0  0
    5.0621   42.0131   33.7082 O   0  0  0  0  0  1  0  0  0  0  0  0
    3.0689   41.5592   32.7458 O   0  0  0  0  0  0  0  0  0  0  0  0
    2.1422   45.6680   33.0391 C   0  0  0  0  0  0  0  0  0  0  0  0
    8.8068   40.1903   34.2081 O   0  0  0  0  0  0  0  0  0  0  0  0
   11.2369   40.7890   33.3691 O   0  0  0  0  0  0  0  0  0  0  0  0
   10.9155   40.6895   31.9960 C   0  0  0  0  0  0  0  0  0  0  0  0
   11.5269   39.3897   31.4371 C   0  0  0  0  0  0  0  0  0  0  0  0
   12.7508   39.0915   32.0836 O   0  0  0  0  0  0  0  0  0  0  0  0
   10.6121   38.1915   31.6451 C   0  0  0  0  0  0  0  0  0  0  0  0
   12.9428   37.6852   32.0294 C   0  0  0  0  0  0  0  0  0  0  0  0
    9.6069   38.0858   30.6602 O   0  0  0  0  0  0  0  0  0  0  0  0
   11.5844   37.0185   31.6879 C   0  0  0  0  0  0  0  0  0  0  0  0
   13.4898   37.2163   33.3249 N   0  0  0  0  0  0  0  0  0  0  0  0
   11.6201   36.3062   30.4692 O   0  0  0  0  0  0  0  0  0  0  0  0
   14.4758   36.3263   33.5738 C   0  0  0  0  0  0  0  0  0  0  0  0
   13.1175   37.6307   34.5698 C   0  0  0  0  0  0  0  0  0  0  0  0
   15.2065   35.6139   32.6746 N   0  0  0  0  0  0  0  0  0  0  0  0
   14.6731   36.2267   34.9190 C   0  0  0  0  0  0  0  0  0  0  0  0
   13.8224   37.0450   35.5792 N   0  0  0  0  0  0  0  0  0  0  0  0
   16.1640   34.7596   33.1551 C   0  0  0  0  0  0  0  0  0  0  0  0
   15.6517   35.3489   35.4136 C   0  0  0  0  0  0  0  0  0  0  0  0
   16.3795   34.6310   34.5046 N   0  0  0  0  0  0  0  0  0  0  0  0
   15.9006   35.1931   36.8094 N   0  0  0  0  0  0  0  0  0  0  0  0
    9.8063   45.0105   32.1535 H   0  0  0  0  0  0  0  0  0  0  0  0
   11.9209   45.6938   32.9747 H   0  0  0  0  0  0  0  0  0  0  0  0
   11.2841   46.1171   34.4925 H   0  0  0  0  0  0  0  0  0  0  0  0
    8.7711   45.7181   34.9870 H   0  0  0  0  0  0  0  0  0  0  0  0
    8.5508   46.7521   33.5374 H   0  0  0  0  0  0  0  0  0  0  0  0
    5.9181   44.2970   30.5357 H   0  0  0  0  0  0  0  0  0  0  0  0
    6.1422   43.1085   31.8344 H   0  0  0  0  0  0  0  0  0  0  0  0
    5.0192   46.7080   31.5779 H   0  0  0  0  0  0  0  0  0  0  0  0
    1.7015   43.6629   33.6511 H   0  0  0  0  0  0  0  0  0  0  0  0
    2.8454   47.5744   32.3385 H   0  0  0  0  0  0  0  0  0  0  0  0
    1.1832   46.0531   33.3611 H   0  0  0  0  0  0  0  0  0  0  0  0
   11.3828   41.5526   31.4753 H   0  0  0  0  0  0  0  0  0  0  0  0
    9.8254   40.7192   31.7586 H   0  0  0  0  0  0  0  0  0  0  0  0
   11.7317   39.5339   30.3518 H   0  0  0  0  0  0  0  0  0  0  0  0
   10.1214   38.2682   32.6412 H   0  0  0  0  0  0  0  0  0  0  0  0
   13.6881   37.4706   31.2318 H   0  0  0  0  0  0  0  0  0  0  0  0
   10.0255   38.1751   29.7656 H   0  0  0  0  0  0  0  0  0  0  0  0
   11.2795   36.3123   32.4915 H   0  0  0  0  0  0  0  0  0  0  0  0
   11.9870   36.9099   29.7714 H   0  0  0  0  0  0  0  0  0  0  0  0
   12.3365   38.3595   34.7453 H   0  0  0  0  0  0  0  0  0  0  0  0
   16.7576   34.1794   32.4622 H   0  0  0  0  0  0  0  0  0  0  0  0
   16.6368   34.5316   37.1418 H   0  0  0  0  0  0  0  0  0  0  0  0
   15.3532   35.7351   37.5143 H   0  0  0  0  0  0  0  0  0  0  0  0
  1  2  2  0
  1  3  1  0
  3  4  1  0
  4  5  1  0
  6  1  1  0
  7  6  1  0
  6  8  1  0
  8  9  1  0
  9 10  1  0
  9 11  2  0
 10 12  1  0
 12 13  1  0
 13 14  2  0
 15 13  1  0
 14 16  1  0
 14 17  1  0
 18 15  2  0
 16 19  1  0
 16 20  2  0
 17 21  2  0
 21 18  1  0
  4 22  2  0
  4 23  1  0
 24 23  1  0
 24 25  1  0
 25 26  1  0
 25 27  1  0
 26 28  1  0
 27 29  1  0
 27 30  1  0
 30 28  1  0
 28 31  1  0
 30 32  1  0
 33 31  1  0
 34 31  1  0
 35 33  2  0
 33 36  1  0
 37 34  2  0
 38 35  1  0
 36 39  2  0
 36 37  1  0
 40 38  2  0
 40 39  1  0
 39 41  1  0
  6 42  1  6
  7 43  1  0
  7 44  1  0
  8 45  1  0
  8 46  1  0
 12 47  1  0
 12 48  1  0
 15 49  1  0
 17 50  1  0
 18 51  1  0
 21 52  1  0
 24 53  1  0
 24 54  1  0
 25 55  1  0
 27 56  1  0
 28 57  1  0
 29 58  1  0
 30 59  1  0
 32 60  1  0
 34 61  1  0
 38 62  1  0
 41 63  1  0
 41 64  1  0
M  CHG  3   5  -1  16   1  19  -1
M  END
>  <EmbedRMS>  (357) 
0.08780151756662365

$$$$

     RDKit          3D

 64 67  0  0  0  0  0  0  0  0999 V2000
   10.2812   43.7759   33.8095 C   0  0  0  0  0  0  0  0  0  0  0  0
   11.4071   43.5919   34.3591 O   0  0  0  0  0  0  0  0  0  0  0  0
    9.3701   42.7291   33.6976 O   0  0  0  0  0  0  0  0  0  0  0  0
    9.8872   41.2335   34.2837 P   0  0  0  0  0  5  0  0  0  0  0  0
   10.3660   41.4701   35.8744 O   0  0  0  0  0  1  0  0  0  0  0  0
    9.9498   45.1175   33.2498 C   0  0  2  0  0  0  0  0  0  0  0  0
   11.0755   46.0252   33.4790 N   0  0  0  0  0  0  0  0  0  0  0  0
    8.6581   45.6938   33.8719 C   0  0  0  0  0  0  0  0  0  0  0  0
    7.4378   44.9468   33.4276 C   0  0  0  0  0  0  0  0  0  0  0  0
    6.8464   44.0208   34.2940 O   0  0  0  0  0  0  0  0  0  0  0  0
    6.9794   45.1318   32.2675 O   0  0  0  0  0  0  0  0  0  0  0  0
    5.6916   43.2530   33.9617 C   0  0  0  0  0  0  0  0  0  0  0  0
    4.4493   44.1107   34.0083 C   0  0  0  0  0  0  0  0  0  0  0  0
    3.8118   44.4593   35.2311 C   0  0  0  0  0  0  0  0  0  0  0  0
    3.8990   44.5610   32.7942 C   0  0  0  0  0  0  0  0  0  0  0  0
    4.3225   44.0395   36.5105 N   0  0  0  0  0  4  0  0  0  0  0  0
    2.6298   45.2208   35.1916 C   0  0  0  0  0  0  0  0  0  0  0  0
    2.7343   45.3287   32.7804 C   0  0  0  0  0  0  0  0  0  0  0  0
    3.4595   43.8535   37.5661 O   0  0  0  0  0  1  0  0  0  0  0  0
    5.5504   43.9987   36.7284 O   0  0  0  0  0  0  0  0  0  0  0  0
    2.0989   45.6548   33.9763 C   0  0  0  0  0  0  0  0  0  0  0  0
    8.8087   40.1916   34.2076 O   0  0  0  0  0  0  0  0  0  0  0  0
   11.2394   40.7891   33.3687 O   0  0  0  0  0  0  0  0  0  0  0  0
   10.9199   40.6893   31.9950 C   0  0  0  0  0  0  0  0  0  0  0  0
   11.5172   39.3800   31.4395 C   0  0  0  0  0  0  0  0  0  0  0  0
   12.7480   39.0859   32.0730 O   0  0  0  0  0  0  0  0  0  0  0  0
   10.6031   38.1891   31.6666 C   0  0  0  0  0  0  0  0  0  0  0  0
   12.9335   37.6795   32.0279 C   0  0  0  0  0  0  0  0  0  0  0  0
    9.6396   38.0777   30.6457 O   0  0  0  0  0  0  0  0  0  0  0  0
   11.5739   37.0153   31.7057 C   0  0  0  0  0  0  0  0  0  0  0  0
   13.4903   37.2177   33.3230 N   0  0  0  0  0  0  0  0  0  0  0  0
   11.6210   36.3376   30.4695 O   0  0  0  0  0  0  0  0  0  0  0  0
   14.4761   36.3273   33.5725 C   0  0  0  0  0  0  0  0  0  0  0  0
   13.1178   37.6316   34.5683 C   0  0  0  0  0  0  0  0  0  0  0  0
   15.2063   35.6138   32.6737 N   0  0  0  0  0  0  0  0  0  0  0  0
   14.6733   36.2277   34.9179 C   0  0  0  0  0  0  0  0  0  0  0  0
   13.8225   37.0459   35.5779 N   0  0  0  0  0  0  0  0  0  0  0  0
   16.1636   34.7594   33.1546 C   0  0  0  0  0  0  0  0  0  0  0  0
   15.6515   35.3494   35.4129 C   0  0  0  0  0  0  0  0  0  0  0  0
   16.3791   34.6311   34.5041 N   0  0  0  0  0  0  0  0  0  0  0  0
   15.9001   35.1936   36.8088 N   0  0  0  0  0  0  0  0  0  0  0  0
    9.8104   45.0043   32.1514 H   0  0  0  0  0  0  0  0  0  0  0  0
   11.1192   46.2822   34.4931 H   0  0  0  0  0  0  0  0  0  0  0  0
   10.9076   46.9078   32.9430 H   0  0  0  0  0  0  0  0  0  0  0  0
    8.5422   46.7571   33.5686 H   0  0  0  0  0  0  0  0  0  0  0  0
    8.7247   45.6698   34.9819 H   0  0  0  0  0  0  0  0  0  0  0  0
    5.8264   42.7836   32.9622 H   0  0  0  0  0  0  0  0  0  0  0  0
    5.5930   42.4160   34.6841 H   0  0  0  0  0  0  0  0  0  0  0  0
    4.3672   44.3086   31.8508 H   0  0  0  0  0  0  0  0  0  0  0  0
    2.1239   45.4949   36.1086 H   0  0  0  0  0  0  0  0  0  0  0  0
    2.3204   45.6665   31.8391 H   0  0  0  0  0  0  0  0  0  0  0  0
    1.1932   46.2474   33.9626 H   0  0  0  0  0  0  0  0  0  0  0  0
   11.4017   41.5436   31.4732 H   0  0  0  0  0  0  0  0  0  0  0  0
    9.8320   40.7397   31.7550 H   0  0  0  0  0  0  0  0  0  0  0  0
   11.6982   39.5042   30.3468 H   0  0  0  0  0  0  0  0  0  0  0  0
   10.1091   38.2633   32.6649 H   0  0  0  0  0  0  0  0  0  0  0  0
   13.6655   37.4537   31.2206 H   0  0  0  0  0  0  0  0  0  0  0  0
    8.8967   38.6904   30.8851 H   0  0  0  0  0  0  0  0  0  0  0  0
   11.2845   36.3059   32.5175 H   0  0  0  0  0  0  0  0  0  0  0  0
   10.8522   35.7095   30.4590 H   0  0  0  0  0  0  0  0  0  0  0  0
   12.3352   38.3587   34.7439 H   0  0  0  0  0  0  0  0  0  0  0  0
   16.7570   34.1788   32.4619 H   0  0  0  0  0  0  0  0  0  0  0  0
   15.3529   35.7359   37.5136 H   0  0  0  0  0  0  0  0  0  0  0  0
   16.6360   34.5317   37.1413 H   0  0  0  0  0  0  0  0  0  0  0  0
  1  2  2  0
  1  3  1  0
  3  4  1  0
  4  5  1  0
  6  1  1  0
  7  6  1  0
  6  8  1  0
  8  9  1  0
  9 10  1  0
  9 11  2  0
 10 12  1  0
 12 13  1  0
 13 14  2  0
 15 13  1  0
 14 16  1  0
 14 17  1  0
 18 15  2  0
 16 19  1  0
 16 20  2  0
 17 21  2  0
 21 18  1  0
  4 22  2  0
  4 23  1  0
 24 23  1  0
 24 25  1  0
 25 26  1  0
 25 27  1  0
 26 28  1  0
 27 29  1  0
 27 30  1  0
 30 28  1  0
 28 31  1  0
 30 32  1  0
 33 31  1  0
 34 31  1  0
 35 33  2  0
 33 36  1  0
 37 34  2  0
 38 35  1  0
 36 39  2  0
 36 37  1  0
 40 38  2  0
 40 39  1  0
 39 41  1  0
  6 42  1  6
  7 43  1  0
  7 44  1  0
  8 45  1  0
  8 46  1  0
 12 47  1  0
 12 48  1  0
 15 49  1  0
 17 50  1  0
 18 51  1  0
 21 52  1  0
 24 53  1  0
 24 54  1  0
 25 55  1  0
 27 56  1  0
 28 57  1  0
 29 58  1  0
 30 59  1  0
 32 60  1  0
 34 61  1  0
 38 62  1  0
 41 63  1  0
 41 64  1  0
M  CHG  3   5  -1  16   1  19  -1
M  END
>  <EmbedRMS>  (358) 
0.08954783983055548

$$$$

     RDKit          3D

 64 67  0  0  0  0  0  0  0  0999 V2000
   10.2812   43.7761   33.8097 C   0  0  0  0  0  0  0  0  0  0  0  0
   11.4072   43.5920   34.3591 O   0  0  0  0  0  0  0  0  0  0  0  0
    9.3701   42.7292   33.6976 O   0  0  0  0  0  0  0  0  0  0  0  0
    9.8870   41.2335   34.2831 P   0  0  0  0  0  5  0  0  0  0  0  0
   10.3672   41.4699   35.8736 O   0  0  0  0  0  1  0  0  0  0  0  0
    9.9496   45.1177   33.2501 C   0  0  2  0  0  0  0  0  0  0  0  0
   11.0752   46.0255   33.4788 N   0  0  0  0  0  0  0  0  0  0  0  0
    8.6578   45.6941   33.8723 C   0  0  0  0  0  0  0  0  0  0  0  0
    7.4397   44.9373   33.4389 C   0  0  0  0  0  0  0  0  0  0  0  0
    6.8489   44.0228   34.3199 O   0  0  0  0  0  0  0  0  0  0  0  0
    6.9740   45.1111   32.2795 O   0  0  0  0  0  0  0  0  0  0  0  0
    5.7536   43.1784   33.9634 C   0  0  0  0  0  0  0  0  0  0  0  0
    4.4054   43.7921   34.2896 C   0  0  0  0  0  0  0  0  0  0  0  0
    3.2381   42.9825   34.3571 C   0  0  0  0  0  0  0  0  0  0  0  0
    4.2878   45.1759   34.5403 C   0  0  0  0  0  0  0  0  0  0  0  0
    3.2775   41.5710   34.0761 N   0  0  0  0  0  4  0  0  0  0  0  0
    2.0112   43.5703   34.7160 C   0  0  0  0  0  0  0  0  0  0  0  0
    3.0569   45.7392   34.8784 C   0  0  0  0  0  0  0  0  0  0  0  0
    4.0289   41.0843   33.0317 O   0  0  0  0  0  1  0  0  0  0  0  0
    2.4997   40.7937   34.6675 O   0  0  0  0  0  0  0  0  0  0  0  0
    1.9226   44.9378   34.9722 C   0  0  0  0  0  0  0  0  0  0  0  0
    8.8080   40.1920   34.2082 O   0  0  0  0  0  0  0  0  0  0  0  0
   11.2378   40.7895   33.3659 O   0  0  0  0  0  0  0  0  0  0  0  0
   10.9138   40.6841   31.9932 C   0  0  0  0  0  0  0  0  0  0  0  0
   11.5175   39.3772   31.4393 C   0  0  0  0  0  0  0  0  0  0  0  0
   12.7478   39.0867   32.0753 O   0  0  0  0  0  0  0  0  0  0  0  0
   10.6069   38.1851   31.6656 C   0  0  0  0  0  0  0  0  0  0  0  0
   12.9372   37.6810   32.0289 C   0  0  0  0  0  0  0  0  0  0  0  0
    9.6403   38.0882   30.6476 O   0  0  0  0  0  0  0  0  0  0  0  0
   11.5788   37.0133   31.7045 C   0  0  0  0  0  0  0  0  0  0  0  0
   13.4915   37.2181   33.3239 N   0  0  0  0  0  0  0  0  0  0  0  0
   11.6124   36.3388   30.4673 O   0  0  0  0  0  0  0  0  0  0  0  0
   14.4766   36.3272   33.5730 C   0  0  0  0  0  0  0  0  0  0  0  0
   13.1184   37.6317   34.5690 C   0  0  0  0  0  0  0  0  0  0  0  0
   15.2066   35.6139   32.6740 N   0  0  0  0  0  0  0  0  0  0  0  0
   14.6735   36.2274   34.9184 C   0  0  0  0  0  0  0  0  0  0  0  0
   13.8227   37.0455   35.5785 N   0  0  0  0  0  0  0  0  0  0  0  0
   16.1637   34.7593   33.1548 C   0  0  0  0  0  0  0  0  0  0  0  0
   15.6517   35.3491   35.4132 C   0  0  0  0  0  0  0  0  0  0  0  0
   16.3792   34.6308   34.5043 N   0  0  0  0  0  0  0  0  0  0  0  0
   15.9003   35.1932   36.8091 N   0  0  0  0  0  0  0  0  0  0  0  0
    9.8096   45.0043   32.1518 H   0  0  0  0  0  0  0  0  0  0  0  0
   11.1199   46.2818   34.4930 H   0  0  0  0  0  0  0  0  0  0  0  0
   10.9065   46.9084   32.9436 H   0  0  0  0  0  0  0  0  0  0  0  0
    8.7287   45.6792   34.9821 H   0  0  0  0  0  0  0  0  0  0  0  0
    8.5363   46.7542   33.5605 H   0  0  0  0  0  0  0  0  0  0  0  0
    5.8656   42.2379   34.5430 H   0  0  0  0  0  0  0  0  0  0  0  0
    5.8032   42.9192   32.8840 H   0  0  0  0  0  0  0  0  0  0  0  0
    5.1447   45.8319   34.4909 H   0  0  0  0  0  0  0  0  0  0  0  0
    1.1134   42.9682   34.7788 H   0  0  0  0  0  0  0  0  0  0  0  0
    2.9842   46.8014   35.0740 H   0  0  0  0  0  0  0  0  0  0  0  0
    0.9702   45.3779   35.2383 H   0  0  0  0  0  0  0  0  0  0  0  0
   11.3852   41.5413   31.4668 H   0  0  0  0  0  0  0  0  0  0  0  0
    9.8235   40.7187   31.7574 H   0  0  0  0  0  0  0  0  0  0  0  0
   11.7006   39.5018   30.3469 H   0  0  0  0  0  0  0  0  0  0  0  0
   10.1098   38.2752   32.6606 H   0  0  0  0  0  0  0  0  0  0  0  0
   13.6713   37.4589   31.2227 H   0  0  0  0  0  0  0  0  0  0  0  0
    9.0028   37.3840   30.9355 H   0  0  0  0  0  0  0  0  0  0  0  0
   11.2705   36.3048   32.5088 H   0  0  0  0  0  0  0  0  0  0  0  0
   12.1441   35.5135   30.6141 H   0  0  0  0  0  0  0  0  0  0  0  0
   12.3361   38.3592   34.7444 H   0  0  0  0  0  0  0  0  0  0  0  0
   16.7571   34.1787   32.4620 H   0  0  0  0  0  0  0  0  0  0  0  0
   15.3531   35.7355   37.5139 H   0  0  0  0  0  0  0  0  0  0  0  0
   16.6362   34.5314   37.1416 H   0  0  0  0  0  0  0  0  0  0  0  0
  1  2  2  0
  1  3  1  0
  3  4  1  0
  4  5  1  0
  6  1  1  0
  7  6  1  0
  6  8  1  0
  8  9  1  0
  9 10  1  0
  9 11  2  0
 10 12  1  0
 12 13  1  0
 13 14  2  0
 15 13  1  0
 14 16  1  0
 14 17  1  0
 18 15  2  0
 16 19  1  0
 16 20  2  0
 17 21  2  0
 21 18  1  0
  4 22  2  0
  4 23  1  0
 24 23  1  0
 24 25  1  0
 25 26  1  0
 25 27  1  0
 26 28  1  0
 27 29  1  0
 27 30  1  0
 30 28  1  0
 28 31  1  0
 30 32  1  0
 33 31  1  0
 34 31  1  0
 35 33  2  0
 33 36  1  0
 37 34  2  0
 38 35  1  0
 36 39  2  0
 36 37  1  0
 40 38  2  0
 40 39  1  0
 39 41  1  0
  6 42  1  6
  7 43  1  0
  7 44  1  0
  8 45  1  0
  8 46  1  0
 12 47  1  0
 12 48  1  0
 15 49  1  0
 17 50  1  0
 18 51  1  0
 21 52  1  0
 24 53  1  0
 24 54  1  0
 25 55  1  0
 27 56  1  0
 28 57  1  0
 29 58  1  0
 30 59  1  0
 32 60  1  0
 34 61  1  0
 38 62  1  0
 41 63  1  0
 41 64  1  0
M  CHG  3   5  -1  16   1  19  -1
M  END
>  <EmbedRMS>  (359) 
0.08896956163798747

$$$$

     RDKit          3D

 64 67  0  0  0  0  0  0  0  0999 V2000
   10.2828   43.7756   33.8074 C   0  0  0  0  0  0  0  0  0  0  0  0
   11.4085   43.5916   34.3576 O   0  0  0  0  0  0  0  0  0  0  0  0
    9.3666   42.7320   33.7013 O   0  0  0  0  0  0  0  0  0  0  0  0
    9.8859   41.2348   34.2841 P   0  0  0  0  0  5  0  0  0  0  0  0
   10.3669   41.4697   35.8745 O   0  0  0  0  0  1  0  0  0  0  0  0
    9.9532   45.1119   33.2439 C   0  0  2  0  0  0  0  0  0  0  0  0
   11.0728   46.0261   33.4847 N   0  0  0  0  0  0  0  0  0  0  0  0
    8.6405   45.6437   33.8569 C   0  0  0  0  0  0  0  0  0  0  0  0
    8.2316   46.9473   33.2441 C   0  0  0  0  0  0  0  0  0  0  0  0
    8.4975   48.1393   33.9232 O   0  0  0  0  0  0  0  0  0  0  0  0
    7.6744   46.9610   32.1124 O   0  0  0  0  0  0  0  0  0  0  0  0
    8.1180   49.4156   33.4177 C   0  0  0  0  0  0  0  0  0  0  0  0
    8.5536   50.4915   34.3810 C   0  0  0  0  0  0  0  0  0  0  0  0
    9.9100   50.6448   34.7727 C   0  0  0  0  0  0  0  0  0  0  0  0
    7.5767   51.3307   34.9485 C   0  0  0  0  0  0  0  0  0  0  0  0
   10.9549   49.8301   34.2140 N   0  0  0  0  0  4  0  0  0  0  0  0
   10.2402   51.6112   35.7399 C   0  0  0  0  0  0  0  0  0  0  0  0
    7.9281   52.2951   35.8941 C   0  0  0  0  0  0  0  0  0  0  0  0
   11.0063   49.5945   32.8602 O   0  0  0  0  0  1  0  0  0  0  0  0
   11.9249   49.4863   34.9207 O   0  0  0  0  0  0  0  0  0  0  0  0
    9.2563   52.4318   36.2927 C   0  0  0  0  0  0  0  0  0  0  0  0
    8.8085   40.1917   34.2087 O   0  0  0  0  0  0  0  0  0  0  0  0
   11.2374   40.7909   33.3676 O   0  0  0  0  0  0  0  0  0  0  0  0
   10.9151   40.6883   31.9947 C   0  0  0  0  0  0  0  0  0  0  0  0
   11.5260   39.3871   31.4365 C   0  0  0  0  0  0  0  0  0  0  0  0
   12.7490   39.0894   32.0820 O   0  0  0  0  0  0  0  0  0  0  0  0
   10.6122   38.1893   31.6461 C   0  0  0  0  0  0  0  0  0  0  0  0
   12.9373   37.6828   32.0301 C   0  0  0  0  0  0  0  0  0  0  0  0
    9.6150   38.0838   30.6538 O   0  0  0  0  0  0  0  0  0  0  0  0
   11.5793   37.0137   31.7014 C   0  0  0  0  0  0  0  0  0  0  0  0
   13.4906   37.2170   33.3242 N   0  0  0  0  0  0  0  0  0  0  0  0
   11.6217   36.3253   30.4725 O   0  0  0  0  0  0  0  0  0  0  0  0
   14.4763   36.3266   33.5731 C   0  0  0  0  0  0  0  0  0  0  0  0
   13.1182   37.6308   34.5694 C   0  0  0  0  0  0  0  0  0  0  0  0
   15.2065   35.6137   32.6740 N   0  0  0  0  0  0  0  0  0  0  0  0
   14.6735   36.2270   34.9185 C   0  0  0  0  0  0  0  0  0  0  0  0
   13.8229   37.0451   35.5787 N   0  0  0  0  0  0  0  0  0  0  0  0
   16.1639   34.7593   33.1547 C   0  0  0  0  0  0  0  0  0  0  0  0
   15.6519   35.3489   35.4132 C   0  0  0  0  0  0  0  0  0  0  0  0
   16.3794   34.6308   34.5042 N   0  0  0  0  0  0  0  0  0  0  0  0
   15.9006   35.1931   36.8090 N   0  0  0  0  0  0  0  0  0  0  0  0
    9.8187   44.9860   32.1463 H   0  0  0  0  0  0  0  0  0  0  0  0
   11.0674   46.3407   34.4831 H   0  0  0  0  0  0  0  0  0  0  0  0
   10.9511   46.8739   32.8858 H   0  0  0  0  0  0  0  0  0  0  0  0
    7.8225   44.9087   33.6912 H   0  0  0  0  0  0  0  0  0  0  0  0
    8.7559   45.7730   34.9554 H   0  0  0  0  0  0  0  0  0  0  0  0
    8.5769   49.5901   32.4224 H   0  0  0  0  0  0  0  0  0  0  0  0
    7.0149   49.4317   33.2765 H   0  0  0  0  0  0  0  0  0  0  0  0
    6.5351   51.2331   34.6679 H   0  0  0  0  0  0  0  0  0  0  0  0
   11.2681   51.7406   36.0547 H   0  0  0  0  0  0  0  0  0  0  0  0
    7.1667   52.9328   36.3247 H   0  0  0  0  0  0  0  0  0  0  0  0
    9.5252   53.1774   37.0298 H   0  0  0  0  0  0  0  0  0  0  0  0
   11.3820   41.5503   31.4719 H   0  0  0  0  0  0  0  0  0  0  0  0
    9.8249   40.7178   31.7583 H   0  0  0  0  0  0  0  0  0  0  0  0
   11.7291   39.5286   30.3504 H   0  0  0  0  0  0  0  0  0  0  0  0
   10.1139   38.2719   32.6380 H   0  0  0  0  0  0  0  0  0  0  0  0
   13.6725   37.4637   31.2240 H   0  0  0  0  0  0  0  0  0  0  0  0
   10.0536   38.1085   29.7639 H   0  0  0  0  0  0  0  0  0  0  0  0
   11.2646   36.3135   32.5107 H   0  0  0  0  0  0  0  0  0  0  0  0
   12.1550   35.5033   30.6316 H   0  0  0  0  0  0  0  0  0  0  0  0
   12.3362   38.3586   34.7451 H   0  0  0  0  0  0  0  0  0  0  0  0
   16.7573   34.1788   32.4619 H   0  0  0  0  0  0  0  0  0  0  0  0
   16.6366   34.5314   37.1415 H   0  0  0  0  0  0  0  0  0  0  0  0
   15.3533   35.7353   37.5139 H   0  0  0  0  0  0  0  0  0  0  0  0
  1  2  2  0
  1  3  1  0
  3  4  1  0
  4  5  1  0
  6  1  1  0
  7  6  1  0
  6  8  1  0
  8  9  1  0
  9 10  1  0
  9 11  2  0
 10 12  1  0
 12 13  1  0
 13 14  2  0
 15 13  1  0
 14 16  1  0
 14 17  1  0
 18 15  2  0
 16 19  1  0
 16 20  2  0
 17 21  2  0
 21 18  1  0
  4 22  2  0
  4 23  1  0
 24 23  1  0
 24 25  1  0
 25 26  1  0
 25 27  1  0
 26 28  1  0
 27 29  1  0
 27 30  1  0
 30 28  1  0
 28 31  1  0
 30 32  1  0
 33 31  1  0
 34 31  1  0
 35 33  2  0
 33 36  1  0
 37 34  2  0
 38 35  1  0
 36 39  2  0
 36 37  1  0
 40 38  2  0
 40 39  1  0
 39 41  1  0
  6 42  1  6
  7 43  1  0
  7 44  1  0
  8 45  1  0
  8 46  1  0
 12 47  1  0
 12 48  1  0
 15 49  1  0
 17 50  1  0
 18 51  1  0
 21 52  1  0
 24 53  1  0
 24 54  1  0
 25 55  1  0
 27 56  1  0
 28 57  1  0
 29 58  1  0
 30 59  1  0
 32 60  1  0
 34 61  1  0
 38 62  1  0
 41 63  1  0
 41 64  1  0
M  CHG  3   5  -1  16   1  19  -1
M  END
>  <EmbedRMS>  (360) 
0.08761206939363092

$$$$

     RDKit          3D

 64 67  0  0  0  0  0  0  0  0999 V2000
   10.2848   43.7725   33.8070 C   0  0  0  0  0  0  0  0  0  0  0  0
   11.4105   43.5873   34.3563 O   0  0  0  0  0  0  0  0  0  0  0  0
    9.3664   42.7313   33.7018 O   0  0  0  0  0  0  0  0  0  0  0  0
    9.8852   41.2342   34.2849 P   0  0  0  0  0  5  0  0  0  0  0  0
   10.3654   41.4696   35.8754 O   0  0  0  0  0  1  0  0  0  0  0  0
    9.9584   45.1106   33.2435 C   0  0  2  0  0  0  0  0  0  0  0  0
   11.0675   46.0369   33.4848 N   0  0  0  0  0  0  0  0  0  0  0  0
    8.6190   45.6571   33.7880 C   0  0  0  0  0  0  0  0  0  0  0  0
    8.6091   45.8052   35.2807 C   0  0  0  0  0  0  0  0  0  0  0  0
    9.0224   47.0106   35.8538 O   0  0  0  0  0  0  0  0  0  0  0  0
    8.2594   44.8342   36.0061 O   0  0  0  0  0  0  0  0  0  0  0  0
    9.0917   47.2103   37.2633 C   0  0  0  0  0  0  0  0  0  0  0  0
    9.6426   48.5806   37.5882 C   0  0  0  0  0  0  0  0  0  0  0  0
    9.3023   49.2522   38.7937 C   0  0  0  0  0  0  0  0  0  0  0  0
   10.5417   49.1966   36.6945 C   0  0  0  0  0  0  0  0  0  0  0  0
    8.4754   48.6390   39.7984 N   0  0  0  0  0  4  0  0  0  0  0  0
    9.7960   50.5488   39.0209 C   0  0  0  0  0  0  0  0  0  0  0  0
   11.0363   50.4762   36.9495 C   0  0  0  0  0  0  0  0  0  0  0  0
    7.6641   49.4195   40.5897 O   0  0  0  0  0  1  0  0  0  0  0  0
    8.6298   47.4371   40.0980 O   0  0  0  0  0  0  0  0  0  0  0  0
   10.6545   51.1559   38.1040 C   0  0  0  0  0  0  0  0  0  0  0  0
    8.8081   40.1910   34.2084 O   0  0  0  0  0  0  0  0  0  0  0  0
   11.2380   40.7910   33.3697 O   0  0  0  0  0  0  0  0  0  0  0  0
   10.9185   40.6906   31.9963 C   0  0  0  0  0  0  0  0  0  0  0  0
   11.5174   39.3824   31.4413 C   0  0  0  0  0  0  0  0  0  0  0  0
   12.7494   39.0893   32.0757 O   0  0  0  0  0  0  0  0  0  0  0  0
   10.6036   38.1899   31.6660 C   0  0  0  0  0  0  0  0  0  0  0  0
   12.9401   37.6834   32.0276 C   0  0  0  0  0  0  0  0  0  0  0  0
    9.6376   38.0785   30.6474 O   0  0  0  0  0  0  0  0  0  0  0  0
   11.5803   37.0204   31.6937 C   0  0  0  0  0  0  0  0  0  0  0  0
   13.4902   37.2177   33.3237 N   0  0  0  0  0  0  0  0  0  0  0  0
   11.6118   36.3193   30.4680 O   0  0  0  0  0  0  0  0  0  0  0  0
   14.4759   36.3271   33.5731 C   0  0  0  0  0  0  0  0  0  0  0  0
   13.1176   37.6317   34.5688 C   0  0  0  0  0  0  0  0  0  0  0  0
   15.2064   35.6141   32.6742 N   0  0  0  0  0  0  0  0  0  0  0  0
   14.6729   36.2274   34.9184 C   0  0  0  0  0  0  0  0  0  0  0  0
   13.8221   37.0457   35.5783 N   0  0  0  0  0  0  0  0  0  0  0  0
   16.1637   34.7597   33.1549 C   0  0  0  0  0  0  0  0  0  0  0  0
   15.6514   35.3493   35.4133 C   0  0  0  0  0  0  0  0  0  0  0  0
   16.3791   34.6312   34.5044 N   0  0  0  0  0  0  0  0  0  0  0  0
   15.9001   35.1935   36.8091 N   0  0  0  0  0  0  0  0  0  0  0  0
    9.8498   44.9835   32.1441 H   0  0  0  0  0  0  0  0  0  0  0  0
   11.1684   46.2211   34.5094 H   0  0  0  0  0  0  0  0  0  0  0  0
   10.8486   46.9501   33.0240 H   0  0  0  0  0  0  0  0  0  0  0  0
    7.7912   44.9802   33.4827 H   0  0  0  0  0  0  0  0  0  0  0  0
    8.4114   46.6464   33.3264 H   0  0  0  0  0  0  0  0  0  0  0  0
    9.7541   46.4417   37.7168 H   0  0  0  0  0  0  0  0  0  0  0  0
    8.0655   47.1011   37.6743 H   0  0  0  0  0  0  0  0  0  0  0  0
   10.8570   48.6928   35.7893 H   0  0  0  0  0  0  0  0  0  0  0  0
    9.5376   51.0820   39.9271 H   0  0  0  0  0  0  0  0  0  0  0  0
   11.7158   50.9429   36.2480 H   0  0  0  0  0  0  0  0  0  0  0  0
   11.0374   52.1497   38.2975 H   0  0  0  0  0  0  0  0  0  0  0  0
    9.8306   40.7396   31.7563 H   0  0  0  0  0  0  0  0  0  0  0  0
   11.3992   41.5455   31.4745 H   0  0  0  0  0  0  0  0  0  0  0  0
   11.6988   39.5092   30.3491 H   0  0  0  0  0  0  0  0  0  0  0  0
   10.1129   38.2588   32.6664 H   0  0  0  0  0  0  0  0  0  0  0  0
   13.6800   37.4629   31.2265 H   0  0  0  0  0  0  0  0  0  0  0  0
    8.8952   38.6907   30.8892 H   0  0  0  0  0  0  0  0  0  0  0  0
   11.2831   36.3060   32.4929 H   0  0  0  0  0  0  0  0  0  0  0  0
   11.8859   36.9590   29.7593 H   0  0  0  0  0  0  0  0  0  0  0  0
   12.3360   38.3600   34.7442 H   0  0  0  0  0  0  0  0  0  0  0  0
   16.7572   34.1793   32.4621 H   0  0  0  0  0  0  0  0  0  0  0  0
   15.3528   35.7357   37.5140 H   0  0  0  0  0  0  0  0  0  0  0  0
   16.6362   34.5318   37.1416 H   0  0  0  0  0  0  0  0  0  0  0  0
  1  2  2  0
  1  3  1  0
  3  4  1  0
  4  5  1  0
  6  1  1  0
  7  6  1  0
  6  8  1  0
  8  9  1  0
  9 10  1  0
  9 11  2  0
 10 12  1  0
 12 13  1  0
 13 14  2  0
 15 13  1  0
 14 16  1  0
 14 17  1  0
 18 15  2  0
 16 19  1  0
 16 20  2  0
 17 21  2  0
 21 18  1  0
  4 22  2  0
  4 23  1  0
 24 23  1  0
 24 25  1  0
 25 26  1  0
 25 27  1  0
 26 28  1  0
 27 29  1  0
 27 30  1  0
 30 28  1  0
 28 31  1  0
 30 32  1  0
 33 31  1  0
 34 31  1  0
 35 33  2  0
 33 36  1  0
 37 34  2  0
 38 35  1  0
 36 39  2  0
 36 37  1  0
 40 38  2  0
 40 39  1  0
 39 41  1  0
  6 42  1  6
  7 43  1  0
  7 44  1  0
  8 45  1  0
  8 46  1  0
 12 47  1  0
 12 48  1  0
 15 49  1  0
 17 50  1  0
 18 51  1  0
 21 52  1  0
 24 53  1  0
 24 54  1  0
 25 55  1  0
 27 56  1  0
 28 57  1  0
 29 58  1  0
 30 59  1  0
 32 60  1  0
 34 61  1  0
 38 62  1  0
 41 63  1  0
 41 64  1  0
M  CHG  3   5  -1  16   1  19  -1
M  END
>  <EmbedRMS>  (361) 
0.08820433546316253

$$$$

     RDKit          3D

 64 67  0  0  0  0  0  0  0  0999 V2000
   10.2863   43.7708   33.8102 C   0  0  0  0  0  0  0  0  0  0  0  0
   11.4102   43.5817   34.3618 O   0  0  0  0  0  0  0  0  0  0  0  0
    9.3670   42.7307   33.7020 O   0  0  0  0  0  0  0  0  0  0  0  0
    9.8850   41.2327   34.2838 P   0  0  0  0  0  5  0  0  0  0  0  0
   10.3652   41.4673   35.8746 O   0  0  0  0  0  1  0  0  0  0  0  0
    9.9616   45.1113   33.2463 C   0  0  2  0  0  0  0  0  0  0  0  0
   11.0650   46.0484   33.4749 N   0  0  0  0  0  0  0  0  0  0  0  0
    8.6628   45.6558   33.8640 C   0  0  0  0  0  0  0  0  0  0  0  0
    8.3020   46.9807   33.2678 C   0  0  0  0  0  0  0  0  0  0  0  0
    7.8923   47.0426   31.9314 O   0  0  0  0  0  0  0  0  0  0  0  0
    8.4035   48.0298   33.9607 O   0  0  0  0  0  0  0  0  0  0  0  0
    7.6823   48.2700   31.2363 C   0  0  0  0  0  0  0  0  0  0  0  0
    8.9904   49.0007   31.0325 C   0  0  0  0  0  0  0  0  0  0  0  0
   10.1248   48.3780   30.4432 C   0  0  0  0  0  0  0  0  0  0  0  0
    9.0950   50.3283   31.4873 C   0  0  0  0  0  0  0  0  0  0  0  0
   10.0781   47.0304   29.9376 N   0  0  0  0  0  4  0  0  0  0  0  0
   11.3333   49.0950   30.3634 C   0  0  0  0  0  0  0  0  0  0  0  0
   10.2991   51.0252   31.3831 C   0  0  0  0  0  0  0  0  0  0  0  0
    8.9651   46.5646   29.2777 O   0  0  0  0  0  1  0  0  0  0  0  0
   11.1066   46.3225   29.9482 O   0  0  0  0  0  0  0  0  0  0  0  0
   11.4173   50.4080   30.8274 C   0  0  0  0  0  0  0  0  0  0  0  0
    8.8074   40.1901   34.2071 O   0  0  0  0  0  0  0  0  0  0  0  0
   11.2381   40.7899   33.3685 O   0  0  0  0  0  0  0  0  0  0  0  0
   10.9194   40.6895   31.9947 C   0  0  0  0  0  0  0  0  0  0  0  0
   11.5171   39.3801   31.4396 C   0  0  0  0  0  0  0  0  0  0  0  0
   12.7478   39.0862   32.0733 O   0  0  0  0  0  0  0  0  0  0  0  0
   10.6031   38.1891   31.6666 C   0  0  0  0  0  0  0  0  0  0  0  0
   12.9335   37.6797   32.0279 C   0  0  0  0  0  0  0  0  0  0  0  0
    9.6397   38.0777   30.6456 O   0  0  0  0  0  0  0  0  0  0  0  0
   11.5739   37.0154   31.7057 C   0  0  0  0  0  0  0  0  0  0  0  0
   13.4903   37.2178   33.3231 N   0  0  0  0  0  0  0  0  0  0  0  0
   11.6211   36.3376   30.4695 O   0  0  0  0  0  0  0  0  0  0  0  0
   14.4761   36.3273   33.5725 C   0  0  0  0  0  0  0  0  0  0  0  0
   13.1178   37.6317   34.5684 C   0  0  0  0  0  0  0  0  0  0  0  0
   15.2063   35.6139   32.6737 N   0  0  0  0  0  0  0  0  0  0  0  0
   14.6733   36.2277   34.9179 C   0  0  0  0  0  0  0  0  0  0  0  0
   13.8225   37.0459   35.5779 N   0  0  0  0  0  0  0  0  0  0  0  0
   16.1636   34.7595   33.1546 C   0  0  0  0  0  0  0  0  0  0  0  0
   15.6515   35.3494   35.4129 C   0  0  0  0  0  0  0  0  0  0  0  0
   16.3791   34.6311   34.5041 N   0  0  0  0  0  0  0  0  0  0  0  0
   15.9001   35.1935   36.8088 N   0  0  0  0  0  0  0  0  0  0  0  0
    9.8144   44.9913   32.1503 H   0  0  0  0  0  0  0  0  0  0  0  0
   11.9216   45.7052   32.9814 H   0  0  0  0  0  0  0  0  0  0  0  0
   11.2744   46.1182   34.4983 H   0  0  0  0  0  0  0  0  0  0  0  0
    7.8273   44.9490   33.6695 H   0  0  0  0  0  0  0  0  0  0  0  0
    8.7772   45.7549   34.9665 H   0  0  0  0  0  0  0  0  0  0  0  0
    7.2199   48.0606   30.2503 H   0  0  0  0  0  0  0  0  0  0  0  0
    6.9505   48.8873   31.8025 H   0  0  0  0  0  0  0  0  0  0  0  0
    8.2446   50.8249   31.9381 H   0  0  0  0  0  0  0  0  0  0  0  0
   12.2121   48.6400   29.9241 H   0  0  0  0  0  0  0  0  0  0  0  0
   10.3667   52.0444   31.7412 H   0  0  0  0  0  0  0  0  0  0  0  0
   12.3515   50.9495   30.7520 H   0  0  0  0  0  0  0  0  0  0  0  0
   11.4013   41.5438   31.4730 H   0  0  0  0  0  0  0  0  0  0  0  0
    9.8316   40.7399   31.7544 H   0  0  0  0  0  0  0  0  0  0  0  0
   11.6982   39.5043   30.3470 H   0  0  0  0  0  0  0  0  0  0  0  0
   10.1090   38.2632   32.6649 H   0  0  0  0  0  0  0  0  0  0  0  0
   13.6655   37.4541   31.2207 H   0  0  0  0  0  0  0  0  0  0  0  0
    8.8966   38.6901   30.8850 H   0  0  0  0  0  0  0  0  0  0  0  0
   11.2846   36.3060   32.5175 H   0  0  0  0  0  0  0  0  0  0  0  0
   10.8523   35.7094   30.4590 H   0  0  0  0  0  0  0  0  0  0  0  0
   12.3353   38.3588   34.7439 H   0  0  0  0  0  0  0  0  0  0  0  0
   16.7570   34.1788   32.4619 H   0  0  0  0  0  0  0  0  0  0  0  0
   15.3529   35.7359   37.5136 H   0  0  0  0  0  0  0  0  0  0  0  0
   16.6360   34.5317   37.1413 H   0  0  0  0  0  0  0  0  0  0  0  0
  1  2  2  0
  1  3  1  0
  3  4  1  0
  4  5  1  0
  6  1  1  0
  7  6  1  0
  6  8  1  0
  8  9  1  0
  9 10  1  0
  9 11  2  0
 10 12  1  0
 12 13  1  0
 13 14  2  0
 15 13  1  0
 14 16  1  0
 14 17  1  0
 18 15  2  0
 16 19  1  0
 16 20  2  0
 17 21  2  0
 21 18  1  0
  4 22  2  0
  4 23  1  0
 24 23  1  0
 24 25  1  0
 25 26  1  0
 25 27  1  0
 26 28  1  0
 27 29  1  0
 27 30  1  0
 30 28  1  0
 28 31  1  0
 30 32  1  0
 33 31  1  0
 34 31  1  0
 35 33  2  0
 33 36  1  0
 37 34  2  0
 38 35  1  0
 36 39  2  0
 36 37  1  0
 40 38  2  0
 40 39  1  0
 39 41  1  0
  6 42  1  6
  7 43  1  0
  7 44  1  0
  8 45  1  0
  8 46  1  0
 12 47  1  0
 12 48  1  0
 15 49  1  0
 17 50  1  0
 18 51  1  0
 21 52  1  0
 24 53  1  0
 24 54  1  0
 25 55  1  0
 27 56  1  0
 28 57  1  0
 29 58  1  0
 30 59  1  0
 32 60  1  0
 34 61  1  0
 38 62  1  0
 41 63  1  0
 41 64  1  0
M  CHG  3   5  -1  16   1  19  -1
M  END
>  <EmbedRMS>  (362) 
0.08992716585022956

$$$$

     RDKit          3D

 64 67  0  0  0  0  0  0  0  0999 V2000
   10.2827   43.7714   33.8168 C   0  0  0  0  0  0  0  0  0  0  0  0
   11.4061   43.5816   34.3689 O   0  0  0  0  0  0  0  0  0  0  0  0
    9.3631   42.7321   33.7081 O   0  0  0  0  0  0  0  0  0  0  0  0
    9.8846   41.2326   34.2835 P   0  0  0  0  0  5  0  0  0  0  0  0
   10.3730   41.4623   35.8712 O   0  0  0  0  0  1  0  0  0  0  0  0
    9.9768   45.1041   33.2219 C   0  0  2  0  0  0  0  0  0  0  0  0
   11.0586   46.0567   33.4847 N   0  0  0  0  0  0  0  0  0  0  0  0
    8.6206   45.6665   33.6893 C   0  0  0  0  0  0  0  0  0  0  0  0
    8.5261   45.8474   35.1754 C   0  0  0  0  0  0  0  0  0  0  0  0
    7.7664   44.9472   35.9310 O   0  0  0  0  0  0  0  0  0  0  0  0
    9.1056   46.8227   35.7262 O   0  0  0  0  0  0  0  0  0  0  0  0
    7.6389   45.0246   37.3495 C   0  0  0  0  0  0  0  0  0  0  0  0
    8.8345   44.3939   38.0197 C   0  0  0  0  0  0  0  0  0  0  0  0
    8.9289   42.9924   38.2380 C   0  0  0  0  0  0  0  0  0  0  0  0
    9.8810   45.2287   38.4515 C   0  0  0  0  0  0  0  0  0  0  0  0
    7.9118   42.0770   37.7895 N   0  0  0  0  0  4  0  0  0  0  0  0
   10.0479   42.4814   38.9200 C   0  0  0  0  0  0  0  0  0  0  0  0
   10.9920   44.6974   39.1069 C   0  0  0  0  0  0  0  0  0  0  0  0
    7.7039   40.8972   38.4665 O   0  0  0  0  0  1  0  0  0  0  0  0
    7.3379   42.2469   36.6945 O   0  0  0  0  0  0  0  0  0  0  0  0
   11.0727   43.3273   39.3457 C   0  0  0  0  0  0  0  0  0  0  0  0
    8.8075   40.1895   34.2088 O   0  0  0  0  0  0  0  0  0  0  0  0
   11.2369   40.7918   33.3662 O   0  0  0  0  0  0  0  0  0  0  0  0
   10.9169   40.6888   31.9932 C   0  0  0  0  0  0  0  0  0  0  0  0
   11.5174   39.3799   31.4394 C   0  0  0  0  0  0  0  0  0  0  0  0
   12.7477   39.0879   32.0752 O   0  0  0  0  0  0  0  0  0  0  0  0
   10.6051   38.1873   31.6655 C   0  0  0  0  0  0  0  0  0  0  0  0
   12.9359   37.6820   32.0289 C   0  0  0  0  0  0  0  0  0  0  0  0
    9.6420   38.0734   30.6445 O   0  0  0  0  0  0  0  0  0  0  0  0
   11.5765   37.0159   31.7046 C   0  0  0  0  0  0  0  0  0  0  0  0
   13.4908   37.2185   33.3237 N   0  0  0  0  0  0  0  0  0  0  0  0
   11.6104   36.3399   30.4680 O   0  0  0  0  0  0  0  0  0  0  0  0
   14.4761   36.3275   33.5728 C   0  0  0  0  0  0  0  0  0  0  0  0
   13.1181   37.6320   34.5690 C   0  0  0  0  0  0  0  0  0  0  0  0
   15.2062   35.6142   32.6739 N   0  0  0  0  0  0  0  0  0  0  0  0
   14.6732   36.2276   34.9182 C   0  0  0  0  0  0  0  0  0  0  0  0
   13.8225   37.0458   35.5784 N   0  0  0  0  0  0  0  0  0  0  0  0
   16.1635   34.7596   33.1546 C   0  0  0  0  0  0  0  0  0  0  0  0
   15.6515   35.3493   35.4130 C   0  0  0  0  0  0  0  0  0  0  0  0
   16.3790   34.6311   34.5041 N   0  0  0  0  0  0  0  0  0  0  0  0
   15.9002   35.1934   36.8089 N   0  0  0  0  0  0  0  0  0  0  0  0
    9.9068   44.9611   32.1208 H   0  0  0  0  0  0  0  0  0  0  0  0
   11.2764   46.0928   34.5074 H   0  0  0  0  0  0  0  0  0  0  0  0
   11.9221   45.7410   32.9846 H   0  0  0  0  0  0  0  0  0  0  0  0
    8.4442   46.6471   33.1963 H   0  0  0  0  0  0  0  0  0  0  0  0
    7.8066   44.9868   33.3550 H   0  0  0  0  0  0  0  0  0  0  0  0
    7.5088   46.0829   37.6672 H   0  0  0  0  0  0  0  0  0  0  0  0
    6.7114   44.5010   37.6611 H   0  0  0  0  0  0  0  0  0  0  0  0
    9.8323   46.2986   38.2926 H   0  0  0  0  0  0  0  0  0  0  0  0
   10.1399   41.4183   39.1022 H   0  0  0  0  0  0  0  0  0  0  0  0
   11.7889   45.3512   39.4370 H   0  0  0  0  0  0  0  0  0  0  0  0
   11.9337   42.9181   39.8583 H   0  0  0  0  0  0  0  0  0  0  0  0
   11.3962   41.5436   31.4699 H   0  0  0  0  0  0  0  0  0  0  0  0
    9.8287   40.7364   31.7544 H   0  0  0  0  0  0  0  0  0  0  0  0
   11.7000   39.5039   30.3470 H   0  0  0  0  0  0  0  0  0  0  0  0
   10.1102   38.2618   32.6636 H   0  0  0  0  0  0  0  0  0  0  0  0
   13.6695   37.4593   31.2223 H   0  0  0  0  0  0  0  0  0  0  0  0
    8.8991   38.6867   30.8819 H   0  0  0  0  0  0  0  0  0  0  0  0
   11.2690   36.3069   32.5091 H   0  0  0  0  0  0  0  0  0  0  0  0
   12.1430   35.5153   30.6154 H   0  0  0  0  0  0  0  0  0  0  0  0
   12.3359   38.3595   34.7447 H   0  0  0  0  0  0  0  0  0  0  0  0
   16.7568   34.1790   32.4618 H   0  0  0  0  0  0  0  0  0  0  0  0
   16.6361   34.5315   37.1413 H   0  0  0  0  0  0  0  0  0  0  0  0
   15.3530   35.7357   37.5138 H   0  0  0  0  0  0  0  0  0  0  0  0
  1  2  2  0
  1  3  1  0
  3  4  1  0
  4  5  1  0
  6  1  1  0
  7  6  1  0
  6  8  1  0
  8  9  1  0
  9 10  1  0
  9 11  2  0
 10 12  1  0
 12 13  1  0
 13 14  2  0
 15 13  1  0
 14 16  1  0
 14 17  1  0
 18 15  2  0
 16 19  1  0
 16 20  2  0
 17 21  2  0
 21 18  1  0
  4 22  2  0
  4 23  1  0
 24 23  1  0
 24 25  1  0
 25 26  1  0
 25 27  1  0
 26 28  1  0
 27 29  1  0
 27 30  1  0
 30 28  1  0
 28 31  1  0
 30 32  1  0
 33 31  1  0
 34 31  1  0
 35 33  2  0
 33 36  1  0
 37 34  2  0
 38 35  1  0
 36 39  2  0
 36 37  1  0
 40 38  2  0
 40 39  1  0
 39 41  1  0
  6 42  1  6
  7 43  1  0
  7 44  1  0
  8 45  1  0
  8 46  1  0
 12 47  1  0
 12 48  1  0
 15 49  1  0
 17 50  1  0
 18 51  1  0
 21 52  1  0
 24 53  1  0
 24 54  1  0
 25 55  1  0
 27 56  1  0
 28 57  1  0
 29 58  1  0
 30 59  1  0
 32 60  1  0
 34 61  1  0
 38 62  1  0
 41 63  1  0
 41 64  1  0
M  CHG  3   5  -1  16   1  19  -1
M  END
>  <EmbedRMS>  (363) 
0.08980793236759026

$$$$

     RDKit          3D

 64 67  0  0  0  0  0  0  0  0999 V2000
   10.2879   43.7686   33.8080 C   0  0  0  0  0  0  0  0  0  0  0  0
   11.4118   43.5792   34.3592 O   0  0  0  0  0  0  0  0  0  0  0  0
    9.3667   42.7303   33.7015 O   0  0  0  0  0  0  0  0  0  0  0  0
    9.8844   41.2326   34.2836 P   0  0  0  0  0  5  0  0  0  0  0  0
   10.3655   41.4679   35.8741 O   0  0  0  0  0  1  0  0  0  0  0  0
    9.9636   45.1118   33.2473 C   0  0  2  0  0  0  0  0  0  0  0  0
   11.0618   46.0542   33.4769 N   0  0  0  0  0  0  0  0  0  0  0  0
    8.6429   45.6680   33.8135 C   0  0  0  0  0  0  0  0  0  0  0  0
    8.6685   45.8187   35.3057 C   0  0  0  0  0  0  0  0  0  0  0  0
    9.0932   47.0274   35.8682 O   0  0  0  0  0  0  0  0  0  0  0  0
    8.3360   44.8475   36.0380 O   0  0  0  0  0  0  0  0  0  0  0  0
    9.1942   47.2489   37.2742 C   0  0  0  0  0  0  0  0  0  0  0  0
    7.8258   47.2761   37.9168 C   0  0  0  0  0  0  0  0  0  0  0  0
    7.5070   46.5210   39.0757 C   0  0  0  0  0  0  0  0  0  0  0  0
    6.8680   48.1638   37.3937 C   0  0  0  0  0  0  0  0  0  0  0  0
    8.4372   45.5938   39.6544 N   0  0  0  0  0  4  0  0  0  0  0  0
    6.2469   46.6828   39.6774 C   0  0  0  0  0  0  0  0  0  0  0  0
    5.6157   48.2979   37.9950 C   0  0  0  0  0  0  0  0  0  0  0  0
    8.9600   44.5773   38.8893 O   0  0  0  0  0  1  0  0  0  0  0  0
    8.5750   45.5458   40.8941 O   0  0  0  0  0  0  0  0  0  0  0  0
    5.3067   47.5610   39.1368 C   0  0  0  0  0  0  0  0  0  0  0  0
    8.8065   40.1903   34.2081 O   0  0  0  0  0  0  0  0  0  0  0  0
   11.2363   40.7896   33.3665 O   0  0  0  0  0  0  0  0  0  0  0  0
   10.9140   40.6849   31.9935 C   0  0  0  0  0  0  0  0  0  0  0  0
   11.5165   39.3773   31.4394 C   0  0  0  0  0  0  0  0  0  0  0  0
   12.7471   39.0855   32.0739 O   0  0  0  0  0  0  0  0  0  0  0  0
   10.6047   38.1867   31.6670 C   0  0  0  0  0  0  0  0  0  0  0  0
   12.9345   37.6791   32.0282 C   0  0  0  0  0  0  0  0  0  0  0  0
    9.6378   38.0917   30.6488 O   0  0  0  0  0  0  0  0  0  0  0  0
   11.5761   37.0129   31.7056 C   0  0  0  0  0  0  0  0  0  0  0  0
   13.4909   37.2177   33.3233 N   0  0  0  0  0  0  0  0  0  0  0  0
   11.6234   36.3371   30.4684 O   0  0  0  0  0  0  0  0  0  0  0  0
   14.4765   36.3272   33.5727 C   0  0  0  0  0  0  0  0  0  0  0  0
   13.1182   37.6316   34.5685 C   0  0  0  0  0  0  0  0  0  0  0  0
   15.2066   35.6137   32.6739 N   0  0  0  0  0  0  0  0  0  0  0  0
   14.6736   36.2276   34.9182 C   0  0  0  0  0  0  0  0  0  0  0  0
   13.8227   37.0457   35.5781 N   0  0  0  0  0  0  0  0  0  0  0  0
   16.1638   34.7593   33.1547 C   0  0  0  0  0  0  0  0  0  0  0  0
   15.6517   35.3492   35.4131 C   0  0  0  0  0  0  0  0  0  0  0  0
   16.3792   34.6309   34.5043 N   0  0  0  0  0  0  0  0  0  0  0  0
   15.9002   35.1934   36.8090 N   0  0  0  0  0  0  0  0  0  0  0  0
    9.8320   44.9929   32.1493 H   0  0  0  0  0  0  0  0  0  0  0  0
   11.9100   45.7266   32.9586 H   0  0  0  0  0  0  0  0  0  0  0  0
   11.3014   46.0984   34.4947 H   0  0  0  0  0  0  0  0  0  0  0  0
    8.4392   46.6596   33.3547 H   0  0  0  0  0  0  0  0  0  0  0  0
    7.8025   44.9986   33.5266 H   0  0  0  0  0  0  0  0  0  0  0  0
    9.6720   48.2377   37.4374 H   0  0  0  0  0  0  0  0  0  0  0  0
    9.8743   46.4965   37.7176 H   0  0  0  0  0  0  0  0  0  0  0  0
    7.0973   48.7637   36.5213 H   0  0  0  0  0  0  0  0  0  0  0  0
    5.9880   46.1134   40.5614 H   0  0  0  0  0  0  0  0  0  0  0  0
    4.8873   48.9829   37.5805 H   0  0  0  0  0  0  0  0  0  0  0  0
    4.3370   47.6706   39.6049 H   0  0  0  0  0  0  0  0  0  0  0  0
    9.8241   40.7213   31.7565 H   0  0  0  0  0  0  0  0  0  0  0  0
   11.3873   41.5416   31.4679 H   0  0  0  0  0  0  0  0  0  0  0  0
   11.6985   39.5015   30.3468 H   0  0  0  0  0  0  0  0  0  0  0  0
   10.1095   38.2769   32.6629 H   0  0  0  0  0  0  0  0  0  0  0  0
   13.6672   37.4545   31.2213 H   0  0  0  0  0  0  0  0  0  0  0  0
    8.9779   37.4156   30.9533 H   0  0  0  0  0  0  0  0  0  0  0  0
   11.2861   36.3041   32.5177 H   0  0  0  0  0  0  0  0  0  0  0  0
   10.8690   35.6918   30.4657 H   0  0  0  0  0  0  0  0  0  0  0  0
   12.3356   38.3587   34.7440 H   0  0  0  0  0  0  0  0  0  0  0  0
   16.7572   34.1786   32.4621 H   0  0  0  0  0  0  0  0  0  0  0  0
   16.6361   34.5315   37.1415 H   0  0  0  0  0  0  0  0  0  0  0  0
   15.3530   35.7358   37.5138 H   0  0  0  0  0  0  0  0  0  0  0  0
  1  2  2  0
  1  3  1  0
  3  4  1  0
  4  5  1  0
  6  1  1  0
  7  6  1  0
  6  8  1  0
  8  9  1  0
  9 10  1  0
  9 11  2  0
 10 12  1  0
 12 13  1  0
 13 14  2  0
 15 13  1  0
 14 16  1  0
 14 17  1  0
 18 15  2  0
 16 19  1  0
 16 20  2  0
 17 21  2  0
 21 18  1  0
  4 22  2  0
  4 23  1  0
 24 23  1  0
 24 25  1  0
 25 26  1  0
 25 27  1  0
 26 28  1  0
 27 29  1  0
 27 30  1  0
 30 28  1  0
 28 31  1  0
 30 32  1  0
 33 31  1  0
 34 31  1  0
 35 33  2  0
 33 36  1  0
 37 34  2  0
 38 35  1  0
 36 39  2  0
 36 37  1  0
 40 38  2  0
 40 39  1  0
 39 41  1  0
  6 42  1  6
  7 43  1  0
  7 44  1  0
  8 45  1  0
  8 46  1  0
 12 47  1  0
 12 48  1  0
 15 49  1  0
 17 50  1  0
 18 51  1  0
 21 52  1  0
 24 53  1  0
 24 54  1  0
 25 55  1  0
 27 56  1  0
 28 57  1  0
 29 58  1  0
 30 59  1  0
 32 60  1  0
 34 61  1  0
 38 62  1  0
 41 63  1  0
 41 64  1  0
M  CHG  3   5  -1  16   1  19  -1
M  END
>  <EmbedRMS>  (364) 
0.08964870588618844

$$$$

     RDKit          3D

 64 67  0  0  0  0  0  0  0  0999 V2000
   10.2843   43.7716   33.8049 C   0  0  0  0  0  0  0  0  0  0  0  0
   11.4059   43.5877   34.3632 O   0  0  0  0  0  0  0  0  0  0  0  0
    9.3644   42.7316   33.7020 O   0  0  0  0  0  0  0  0  0  0  0  0
    9.8846   41.2347   34.2848 P   0  0  0  0  0  5  0  0  0  0  0  0
   10.3718   41.4702   35.8726 O   0  0  0  0  0  1  0  0  0  0  0  0
    9.9633   45.1096   33.2337 C   0  0  2  0  0  0  0  0  0  0  0  0
   11.0661   46.0376   33.4913 N   0  0  0  0  0  0  0  0  0  0  0  0
    8.6342   45.6615   33.7958 C   0  0  0  0  0  0  0  0  0  0  0  0
    8.5676   45.7003   35.2970 C   0  0  0  0  0  0  0  0  0  0  0  0
    7.3376   45.4731   35.9227 O   0  0  0  0  0  0  0  0  0  0  0  0
    9.5896   45.9888   35.9785 O   0  0  0  0  0  0  0  0  0  0  0  0
    7.1882   45.3621   37.3361 C   0  0  0  0  0  0  0  0  0  0  0  0
    7.7170   44.0333   37.8228 C   0  0  0  0  0  0  0  0  0  0  0  0
    7.2749   42.7975   37.2773 C   0  0  0  0  0  0  0  0  0  0  0  0
    8.6988   44.0270   38.8304 C   0  0  0  0  0  0  0  0  0  0  0  0
    6.2726   42.7363   36.2460 N   0  0  0  0  0  4  0  0  0  0  0  0
    7.8430   41.5995   37.7478 C   0  0  0  0  0  0  0  0  0  0  0  0
    9.2423   42.8262   39.2883 C   0  0  0  0  0  0  0  0  0  0  0  0
    5.1675   43.5536   36.2905 O   0  0  0  0  0  1  0  0  0  0  0  0
    6.3128   41.8298   35.3885 O   0  0  0  0  0  0  0  0  0  0  0  0
    8.8161   41.6151   38.7476 C   0  0  0  0  0  0  0  0  0  0  0  0
    8.8082   40.1906   34.2116 O   0  0  0  0  0  0  0  0  0  0  0  0
   11.2359   40.7913   33.3681 O   0  0  0  0  0  0  0  0  0  0  0  0
   10.9141   40.6897   31.9954 C   0  0  0  0  0  0  0  0  0  0  0  0
   11.5265   39.3898   31.4374 C   0  0  0  0  0  0  0  0  0  0  0  0
   12.7502   39.0919   32.0841 O   0  0  0  0  0  0  0  0  0  0  0  0
   10.6119   38.1915   31.6452 C   0  0  0  0  0  0  0  0  0  0  0  0
   12.9427   37.6855   32.0296 C   0  0  0  0  0  0  0  0  0  0  0  0
    9.6068   38.0856   30.6603 O   0  0  0  0  0  0  0  0  0  0  0  0
   11.5844   37.0186   31.6880 C   0  0  0  0  0  0  0  0  0  0  0  0
   13.4898   37.2165   33.3250 N   0  0  0  0  0  0  0  0  0  0  0  0
   11.6202   36.3063   30.4693 O   0  0  0  0  0  0  0  0  0  0  0  0
   14.4758   36.3264   33.5739 C   0  0  0  0  0  0  0  0  0  0  0  0
   13.1175   37.6308   34.5700 C   0  0  0  0  0  0  0  0  0  0  0  0
   15.2064   35.6140   32.6746 N   0  0  0  0  0  0  0  0  0  0  0  0
   14.6731   36.2268   34.9191 C   0  0  0  0  0  0  0  0  0  0  0  0
   13.8224   37.0450   35.5793 N   0  0  0  0  0  0  0  0  0  0  0  0
   16.1639   34.7596   33.1551 C   0  0  0  0  0  0  0  0  0  0  0  0
   15.6517   35.3489   35.4136 C   0  0  0  0  0  0  0  0  0  0  0  0
   16.3794   34.6310   34.5045 N   0  0  0  0  0  0  0  0  0  0  0  0
   15.9006   35.1931   36.8094 N   0  0  0  0  0  0  0  0  0  0  0  0
    9.8456   44.9899   32.1330 H   0  0  0  0  0  0  0  0  0  0  0  0
   11.9029   45.7161   32.9508 H   0  0  0  0  0  0  0  0  0  0  0  0
   10.8167   46.9701   33.0883 H   0  0  0  0  0  0  0  0  0  0  0  0
    7.8002   45.0279   33.4223 H   0  0  0  0  0  0  0  0  0  0  0  0
    8.4588   46.6868   33.4057 H   0  0  0  0  0  0  0  0  0  0  0  0
    7.6988   46.2176   37.8309 H   0  0  0  0  0  0  0  0  0  0  0  0
    6.1145   45.4471   37.5996 H   0  0  0  0  0  0  0  0  0  0  0  0
    9.0527   44.9558   39.2606 H   0  0  0  0  0  0  0  0  0  0  0  0
    7.5238   40.6470   37.3438 H   0  0  0  0  0  0  0  0  0  0  0  0
    9.9990   42.8355   40.0622 H   0  0  0  0  0  0  0  0  0  0  0  0
    9.2418   40.6853   39.1022 H   0  0  0  0  0  0  0  0  0  0  0  0
   11.3802   41.5527   31.4735 H   0  0  0  0  0  0  0  0  0  0  0  0
    9.8238   40.7182   31.7590 H   0  0  0  0  0  0  0  0  0  0  0  0
   11.7315   39.5337   30.3520 H   0  0  0  0  0  0  0  0  0  0  0  0
   10.1212   38.2681   32.6413 H   0  0  0  0  0  0  0  0  0  0  0  0
   13.6881   37.4713   31.2320 H   0  0  0  0  0  0  0  0  0  0  0  0
   10.0255   38.1748   29.7656 H   0  0  0  0  0  0  0  0  0  0  0  0
   11.2796   36.3124   32.4916 H   0  0  0  0  0  0  0  0  0  0  0  0
   11.9872   36.9100   29.7715 H   0  0  0  0  0  0  0  0  0  0  0  0
   12.3365   38.3597   34.7455 H   0  0  0  0  0  0  0  0  0  0  0  0
   16.7576   34.1795   32.4622 H   0  0  0  0  0  0  0  0  0  0  0  0
   16.6368   34.5316   37.1418 H   0  0  0  0  0  0  0  0  0  0  0  0
   15.3532   35.7351   37.5143 H   0  0  0  0  0  0  0  0  0  0  0  0
  1  2  2  0
  1  3  1  0
  3  4  1  0
  4  5  1  0
  6  1  1  0
  7  6  1  0
  6  8  1  0
  8  9  1  0
  9 10  1  0
  9 11  2  0
 10 12  1  0
 12 13  1  0
 13 14  2  0
 15 13  1  0
 14 16  1  0
 14 17  1  0
 18 15  2  0
 16 19  1  0
 16 20  2  0
 17 21  2  0
 21 18  1  0
  4 22  2  0
  4 23  1  0
 24 23  1  0
 24 25  1  0
 25 26  1  0
 25 27  1  0
 26 28  1  0
 27 29  1  0
 27 30  1  0
 30 28  1  0
 28 31  1  0
 30 32  1  0
 33 31  1  0
 34 31  1  0
 35 33  2  0
 33 36  1  0
 37 34  2  0
 38 35  1  0
 36 39  2  0
 36 37  1  0
 40 38  2  0
 40 39  1  0
 39 41  1  0
  6 42  1  6
  7 43  1  0
  7 44  1  0
  8 45  1  0
  8 46  1  0
 12 47  1  0
 12 48  1  0
 15 49  1  0
 17 50  1  0
 18 51  1  0
 21 52  1  0
 24 53  1  0
 24 54  1  0
 25 55  1  0
 27 56  1  0
 28 57  1  0
 29 58  1  0
 30 59  1  0
 32 60  1  0
 34 61  1  0
 38 62  1  0
 41 63  1  0
 41 64  1  0
M  CHG  3   5  -1  16   1  19  -1
M  END
>  <EmbedRMS>  (365) 
0.08644848823537725

$$$$

     RDKit          3D

 64 67  0  0  0  0  0  0  0  0999 V2000
   10.2863   43.7710   33.8101 C   0  0  0  0  0  0  0  0  0  0  0  0
   11.4100   43.5817   34.3618 O   0  0  0  0  0  0  0  0  0  0  0  0
    9.3669   42.7309   33.7019 O   0  0  0  0  0  0  0  0  0  0  0  0
    9.8849   41.2328   34.2832 P   0  0  0  0  0  5  0  0  0  0  0  0
   10.3662   41.4672   35.8738 O   0  0  0  0  0  1  0  0  0  0  0  0
    9.9612   45.1120   33.2465 C   0  0  2  0  0  0  0  0  0  0  0  0
   11.0651   46.0483   33.4750 N   0  0  0  0  0  0  0  0  0  0  0  0
    8.6646   45.6570   33.8682 C   0  0  0  0  0  0  0  0  0  0  0  0
    8.2726   46.9574   33.2384 C   0  0  0  0  0  0  0  0  0  0  0  0
    7.7316   46.9582   31.9500 O   0  0  0  0  0  0  0  0  0  0  0  0
    8.4625   48.0394   33.8583 O   0  0  0  0  0  0  0  0  0  0  0  0
    7.3680   48.1552   31.2669 C   0  0  0  0  0  0  0  0  0  0  0  0
    6.8672   47.8490   29.8738 C   0  0  0  0  0  0  0  0  0  0  0  0
    5.9225   48.6865   29.2234 C   0  0  0  0  0  0  0  0  0  0  0  0
    7.3699   46.7251   29.1880 C   0  0  0  0  0  0  0  0  0  0  0  0
    5.4543   49.9058   29.8257 N   0  0  0  0  0  4  0  0  0  0  0  0
    5.4456   48.3255   27.9500 C   0  0  0  0  0  0  0  0  0  0  0  0
    6.8975   46.3954   27.9170 C   0  0  0  0  0  0  0  0  0  0  0  0
    6.3348   50.7476   30.4655 O   0  0  0  0  0  1  0  0  0  0  0  0
    4.2912   50.3047   29.6093 O   0  0  0  0  0  0  0  0  0  0  0  0
    5.9285   47.1870   27.3044 C   0  0  0  0  0  0  0  0  0  0  0  0
    8.8070   40.1904   34.2076 O   0  0  0  0  0  0  0  0  0  0  0  0
   11.2367   40.7901   33.3660 O   0  0  0  0  0  0  0  0  0  0  0  0
   10.9141   40.6850   31.9931 C   0  0  0  0  0  0  0  0  0  0  0  0
   11.5165   39.3773   31.4393 C   0  0  0  0  0  0  0  0  0  0  0  0
   12.7471   39.0855   32.0739 O   0  0  0  0  0  0  0  0  0  0  0  0
   10.6047   38.1867   31.6669 C   0  0  0  0  0  0  0  0  0  0  0  0
   12.9345   37.6791   32.0282 C   0  0  0  0  0  0  0  0  0  0  0  0
    9.6378   38.0917   30.6488 O   0  0  0  0  0  0  0  0  0  0  0  0
   11.5761   37.0129   31.7056 C   0  0  0  0  0  0  0  0  0  0  0  0
   13.4909   37.2177   33.3233 N   0  0  0  0  0  0  0  0  0  0  0  0
   11.6234   36.3371   30.4684 O   0  0  0  0  0  0  0  0  0  0  0  0
   14.4765   36.3272   33.5727 C   0  0  0  0  0  0  0  0  0  0  0  0
   13.1182   37.6316   34.5685 C   0  0  0  0  0  0  0  0  0  0  0  0
   15.2066   35.6137   32.6739 N   0  0  0  0  0  0  0  0  0  0  0  0
   14.6736   36.2276   34.9182 C   0  0  0  0  0  0  0  0  0  0  0  0
   13.8227   37.0457   35.5781 N   0  0  0  0  0  0  0  0  0  0  0  0
   16.1638   34.7593   33.1547 C   0  0  0  0  0  0  0  0  0  0  0  0
   15.6517   35.3493   35.4131 C   0  0  0  0  0  0  0  0  0  0  0  0
   16.3792   34.6309   34.5043 N   0  0  0  0  0  0  0  0  0  0  0  0
   15.9003   35.1934   36.8090 N   0  0  0  0  0  0  0  0  0  0  0  0
    9.8126   44.9935   32.1500 H   0  0  0  0  0  0  0  0  0  0  0  0
   11.2740   46.1187   34.4985 H   0  0  0  0  0  0  0  0  0  0  0  0
   11.9221   45.7028   32.9836 H   0  0  0  0  0  0  0  0  0  0  0  0
    7.8361   44.9331   33.7091 H   0  0  0  0  0  0  0  0  0  0  0  0
    8.7930   45.7907   34.9654 H   0  0  0  0  0  0  0  0  0  0  0  0
    6.5745   48.6587   31.8592 H   0  0  0  0  0  0  0  0  0  0  0  0
    8.2518   48.8247   31.1909 H   0  0  0  0  0  0  0  0  0  0  0  0
    8.1236   46.0919   29.6392 H   0  0  0  0  0  0  0  0  0  0  0  0
    4.7164   48.9449   27.4429 H   0  0  0  0  0  0  0  0  0  0  0  0
    7.2827   45.5218   27.4069 H   0  0  0  0  0  0  0  0  0  0  0  0
    5.5620   46.9272   26.3196 H   0  0  0  0  0  0  0  0  0  0  0  0
    9.8241   40.7213   31.7563 H   0  0  0  0  0  0  0  0  0  0  0  0
   11.3872   41.5416   31.4671 H   0  0  0  0  0  0  0  0  0  0  0  0
   11.6986   39.5013   30.3467 H   0  0  0  0  0  0  0  0  0  0  0  0
   10.1095   38.2770   32.6628 H   0  0  0  0  0  0  0  0  0  0  0  0
   13.6672   37.4545   31.2213 H   0  0  0  0  0  0  0  0  0  0  0  0
    8.9779   37.4157   30.9533 H   0  0  0  0  0  0  0  0  0  0  0  0
   11.2861   36.3041   32.5177 H   0  0  0  0  0  0  0  0  0  0  0  0
   10.8690   35.6918   30.4657 H   0  0  0  0  0  0  0  0  0  0  0  0
   12.3356   38.3587   34.7439 H   0  0  0  0  0  0  0  0  0  0  0  0
   16.7572   34.1786   32.4621 H   0  0  0  0  0  0  0  0  0  0  0  0
   16.6361   34.5315   37.1415 H   0  0  0  0  0  0  0  0  0  0  0  0
   15.3530   35.7358   37.5138 H   0  0  0  0  0  0  0  0  0  0  0  0
  1  2  2  0
  1  3  1  0
  3  4  1  0
  4  5  1  0
  6  1  1  0
  7  6  1  0
  6  8  1  0
  8  9  1  0
  9 10  1  0
  9 11  2  0
 10 12  1  0
 12 13  1  0
 13 14  2  0
 15 13  1  0
 14 16  1  0
 14 17  1  0
 18 15  2  0
 16 19  1  0
 16 20  2  0
 17 21  2  0
 21 18  1  0
  4 22  2  0
  4 23  1  0
 24 23  1  0
 24 25  1  0
 25 26  1  0
 25 27  1  0
 26 28  1  0
 27 29  1  0
 27 30  1  0
 30 28  1  0
 28 31  1  0
 30 32  1  0
 33 31  1  0
 34 31  1  0
 35 33  2  0
 33 36  1  0
 37 34  2  0
 38 35  1  0
 36 39  2  0
 36 37  1  0
 40 38  2  0
 40 39  1  0
 39 41  1  0
  6 42  1  6
  7 43  1  0
  7 44  1  0
  8 45  1  0
  8 46  1  0
 12 47  1  0
 12 48  1  0
 15 49  1  0
 17 50  1  0
 18 51  1  0
 21 52  1  0
 24 53  1  0
 24 54  1  0
 25 55  1  0
 27 56  1  0
 28 57  1  0
 29 58  1  0
 30 59  1  0
 32 60  1  0
 34 61  1  0
 38 62  1  0
 41 63  1  0
 41 64  1  0
M  CHG  3   5  -1  16   1  19  -1
M  END
>  <EmbedRMS>  (366) 
0.08951857350324141

$$$$

     RDKit          3D

 64 67  0  0  0  0  0  0  0  0999 V2000
   10.2869   43.7706   33.8009 C   0  0  0  0  0  0  0  0  0  0  0  0
   11.4094   43.5865   34.3569 O   0  0  0  0  0  0  0  0  0  0  0  0
    9.3672   42.7306   33.6981 O   0  0  0  0  0  0  0  0  0  0  0  0
    9.8851   41.2344   34.2843 P   0  0  0  0  0  5  0  0  0  0  0  0
   10.3655   41.4710   35.8745 O   0  0  0  0  0  1  0  0  0  0  0  0
    9.9514   45.1165   33.2562 C   0  0  2  0  0  0  0  0  0  0  0  0
   11.0718   46.0323   33.4793 N   0  0  0  0  0  0  0  0  0  0  0  0
    8.6624   45.6669   33.9028 C   0  0  0  0  0  0  0  0  0  0  0  0
    8.7746   45.7493   35.3958 C   0  0  0  0  0  0  0  0  0  0  0  0
    9.5428   46.7650   35.9741 O   0  0  0  0  0  0  0  0  0  0  0  0
    8.2259   44.8691   36.1135 O   0  0  0  0  0  0  0  0  0  0  0  0
    9.9846   46.7247   37.3285 C   0  0  0  0  0  0  0  0  0  0  0  0
   11.0660   45.6791   37.4794 C   0  0  0  0  0  0  0  0  0  0  0  0
   10.8567   44.4436   38.1463 C   0  0  0  0  0  0  0  0  0  0  0  0
   12.2868   45.9006   36.8173 C   0  0  0  0  0  0  0  0  0  0  0  0
    9.6480   44.1656   38.8670 N   0  0  0  0  0  4  0  0  0  0  0  0
   11.8600   43.4611   38.1057 C   0  0  0  0  0  0  0  0  0  0  0  0
   13.2796   44.9199   36.8041 C   0  0  0  0  0  0  0  0  0  0  0  0
    9.0794   42.9156   38.7840 O   0  0  0  0  0  1  0  0  0  0  0  0
    9.2652   44.9430   39.7651 O   0  0  0  0  0  0  0  0  0  0  0  0
   13.0637   43.6993   37.4412 C   0  0  0  0  0  0  0  0  0  0  0  0
    8.8077   40.1915   34.2092 O   0  0  0  0  0  0  0  0  0  0  0  0
   11.2369   40.7896   33.3687 O   0  0  0  0  0  0  0  0  0  0  0  0
   10.9155   40.6883   31.9955 C   0  0  0  0  0  0  0  0  0  0  0  0
   11.5261   39.3872   31.4367 C   0  0  0  0  0  0  0  0  0  0  0  0
   12.7492   39.0894   32.0820 O   0  0  0  0  0  0  0  0  0  0  0  0
   10.6123   38.1894   31.6462 C   0  0  0  0  0  0  0  0  0  0  0  0
   12.9374   37.6828   32.0302 C   0  0  0  0  0  0  0  0  0  0  0  0
    9.6151   38.0840   30.6538 O   0  0  0  0  0  0  0  0  0  0  0  0
   11.5793   37.0137   31.7014 C   0  0  0  0  0  0  0  0  0  0  0  0
   13.4906   37.2170   33.3243 N   0  0  0  0  0  0  0  0  0  0  0  0
   11.6217   36.3253   30.4726 O   0  0  0  0  0  0  0  0  0  0  0  0
   14.4763   36.3267   33.5731 C   0  0  0  0  0  0  0  0  0  0  0  0
   13.1182   37.6310   34.5695 C   0  0  0  0  0  0  0  0  0  0  0  0
   15.2065   35.6137   32.6740 N   0  0  0  0  0  0  0  0  0  0  0  0
   14.6735   36.2270   34.9185 C   0  0  0  0  0  0  0  0  0  0  0  0
   13.8229   37.0452   35.5788 N   0  0  0  0  0  0  0  0  0  0  0  0
   16.1639   34.7593   33.1547 C   0  0  0  0  0  0  0  0  0  0  0  0
   15.6518   35.3489   35.4132 C   0  0  0  0  0  0  0  0  0  0  0  0
   16.3794   34.6308   34.5042 N   0  0  0  0  0  0  0  0  0  0  0  0
   15.9006   35.1931   36.8090 N   0  0  0  0  0  0  0  0  0  0  0  0
    9.7768   45.0140   32.1615 H   0  0  0  0  0  0  0  0  0  0  0  0
   10.8141   46.9713   33.0970 H   0  0  0  0  0  0  0  0  0  0  0  0
   11.8837   45.7091   32.9032 H   0  0  0  0  0  0  0  0  0  0  0  0
    8.4449   46.6797   33.5009 H   0  0  0  0  0  0  0  0  0  0  0  0
    7.8023   45.0171   33.6282 H   0  0  0  0  0  0  0  0  0  0  0  0
    9.1157   46.5638   37.9947 H   0  0  0  0  0  0  0  0  0  0  0  0
   10.4078   47.7175   37.5908 H   0  0  0  0  0  0  0  0  0  0  0  0
   12.4598   46.8294   36.2872 H   0  0  0  0  0  0  0  0  0  0  0  0
   11.7135   42.5116   38.6050 H   0  0  0  0  0  0  0  0  0  0  0  0
   14.2118   45.1010   36.2848 H   0  0  0  0  0  0  0  0  0  0  0  0
   13.8310   42.9361   37.4217 H   0  0  0  0  0  0  0  0  0  0  0  0
   11.3830   41.5505   31.4737 H   0  0  0  0  0  0  0  0  0  0  0  0
    9.8253   40.7182   31.7584 H   0  0  0  0  0  0  0  0  0  0  0  0
   11.7290   39.5291   30.3506 H   0  0  0  0  0  0  0  0  0  0  0  0
   10.1139   38.2719   32.6380 H   0  0  0  0  0  0  0  0  0  0  0  0
   13.6726   37.4637   31.2241 H   0  0  0  0  0  0  0  0  0  0  0  0
   10.0537   38.1088   29.7639 H   0  0  0  0  0  0  0  0  0  0  0  0
   11.2646   36.3135   32.5108 H   0  0  0  0  0  0  0  0  0  0  0  0
   12.1550   35.5033   30.6316 H   0  0  0  0  0  0  0  0  0  0  0  0
   12.3364   38.3590   34.7451 H   0  0  0  0  0  0  0  0  0  0  0  0
   16.7573   34.1789   32.4619 H   0  0  0  0  0  0  0  0  0  0  0  0
   16.6366   34.5314   37.1415 H   0  0  0  0  0  0  0  0  0  0  0  0
   15.3533   35.7354   37.5139 H   0  0  0  0  0  0  0  0  0  0  0  0
  1  2  2  0
  1  3  1  0
  3  4  1  0
  4  5  1  0
  6  1  1  0
  7  6  1  0
  6  8  1  0
  8  9  1  0
  9 10  1  0
  9 11  2  0
 10 12  1  0
 12 13  1  0
 13 14  2  0
 15 13  1  0
 14 16  1  0
 14 17  1  0
 18 15  2  0
 16 19  1  0
 16 20  2  0
 17 21  2  0
 21 18  1  0
  4 22  2  0
  4 23  1  0
 24 23  1  0
 24 25  1  0
 25 26  1  0
 25 27  1  0
 26 28  1  0
 27 29  1  0
 27 30  1  0
 30 28  1  0
 28 31  1  0
 30 32  1  0
 33 31  1  0
 34 31  1  0
 35 33  2  0
 33 36  1  0
 37 34  2  0
 38 35  1  0
 36 39  2  0
 36 37  1  0
 40 38  2  0
 40 39  1  0
 39 41  1  0
  6 42  1  6
  7 43  1  0
  7 44  1  0
  8 45  1  0
  8 46  1  0
 12 47  1  0
 12 48  1  0
 15 49  1  0
 17 50  1  0
 18 51  1  0
 21 52  1  0
 24 53  1  0
 24 54  1  0
 25 55  1  0
 27 56  1  0
 28 57  1  0
 29 58  1  0
 30 59  1  0
 32 60  1  0
 34 61  1  0
 38 62  1  0
 41 63  1  0
 41 64  1  0
M  CHG  3   5  -1  16   1  19  -1
M  END
>  <EmbedRMS>  (367) 
0.08783224451378459

$$$$

     RDKit          3D

 64 67  0  0  0  0  0  0  0  0999 V2000
   10.2856   43.7724   33.8056 C   0  0  0  0  0  0  0  0  0  0  0  0
   11.4106   43.5877   34.3563 O   0  0  0  0  0  0  0  0  0  0  0  0
    9.3664   42.7316   33.7021 O   0  0  0  0  0  0  0  0  0  0  0  0
    9.8851   41.2341   34.2839 P   0  0  0  0  0  5  0  0  0  0  0  0
   10.3687   41.4671   35.8728 O   0  0  0  0  0  1  0  0  0  0  0  0
    9.9592   45.1104   33.2413 C   0  0  2  0  0  0  0  0  0  0  0  0
   11.0661   46.0379   33.4862 N   0  0  0  0  0  0  0  0  0  0  0  0
    8.6168   45.6586   33.7778 C   0  0  0  0  0  0  0  0  0  0  0  0
    8.6127   45.8699   35.2643 C   0  0  0  0  0  0  0  0  0  0  0  0
    8.7425   44.7703   36.1167 O   0  0  0  0  0  0  0  0  0  0  0  0
    8.4920   47.0353   35.7322 O   0  0  0  0  0  0  0  0  0  0  0  0
    8.6727   44.8761   37.5337 C   0  0  0  0  0  0  0  0  0  0  0  0
    8.9876   43.5373   38.1470 C   0  0  0  0  0  0  0  0  0  0  0  0
    8.0097   42.5158   38.2815 C   0  0  0  0  0  0  0  0  0  0  0  0
   10.3025   43.2935   38.5841 C   0  0  0  0  0  0  0  0  0  0  0  0
    6.6595   42.6891   37.8132 N   0  0  0  0  0  4  0  0  0  0  0  0
    8.3702   41.3014   38.8946 C   0  0  0  0  0  0  0  0  0  0  0  0
   10.6416   42.0765   39.1766 C   0  0  0  0  0  0  0  0  0  0  0  0
    6.4068   43.3178   36.6161 O   0  0  0  0  0  1  0  0  0  0  0  0
    5.7167   42.1171   38.3991 O   0  0  0  0  0  0  0  0  0  0  0  0
    9.6761   41.0845   39.3366 C   0  0  0  0  0  0  0  0  0  0  0  0
    8.8071   40.1917   34.2094 O   0  0  0  0  0  0  0  0  0  0  0  0
   11.2361   40.7906   33.3661 O   0  0  0  0  0  0  0  0  0  0  0  0
   10.9126   40.6844   31.9936 C   0  0  0  0  0  0  0  0  0  0  0  0
   11.5173   39.3777   31.4398 C   0  0  0  0  0  0  0  0  0  0  0  0
   12.7474   39.0872   32.0762 O   0  0  0  0  0  0  0  0  0  0  0  0
   10.6066   38.1854   31.6654 C   0  0  0  0  0  0  0  0  0  0  0  0
   12.9370   37.6814   32.0293 C   0  0  0  0  0  0  0  0  0  0  0  0
    9.6411   38.0887   30.6463 O   0  0  0  0  0  0  0  0  0  0  0  0
   11.5786   37.0137   31.7049 C   0  0  0  0  0  0  0  0  0  0  0  0
   13.4914   37.2182   33.3241 N   0  0  0  0  0  0  0  0  0  0  0  0
   11.6123   36.3383   30.4683 O   0  0  0  0  0  0  0  0  0  0  0  0
   14.4767   36.3274   33.5731 C   0  0  0  0  0  0  0  0  0  0  0  0
   13.1178   37.6310   34.5694 C   0  0  0  0  0  0  0  0  0  0  0  0
   15.2067   35.6143   32.6740 N   0  0  0  0  0  0  0  0  0  0  0  0
   14.6736   36.2274   34.9185 C   0  0  0  0  0  0  0  0  0  0  0  0
   13.8225   37.0450   35.5787 N   0  0  0  0  0  0  0  0  0  0  0  0
   16.1640   34.7597   33.1545 C   0  0  0  0  0  0  0  0  0  0  0  0
   15.6517   35.3489   35.4131 C   0  0  0  0  0  0  0  0  0  0  0  0
   16.3794   34.6309   34.5040 N   0  0  0  0  0  0  0  0  0  0  0  0
   15.9005   35.1931   36.8089 N   0  0  0  0  0  0  0  0  0  0  0  0
    9.8550   44.9807   32.1417 H   0  0  0  0  0  0  0  0  0  0  0  0
   10.8568   46.9421   33.0037 H   0  0  0  0  0  0  0  0  0  0  0  0
   11.1444   46.2426   34.5091 H   0  0  0  0  0  0  0  0  0  0  0  0
    8.3873   46.6183   33.2650 H   0  0  0  0  0  0  0  0  0  0  0  0
    7.7978   44.9529   33.5202 H   0  0  0  0  0  0  0  0  0  0  0  0
    9.3986   45.6423   37.8856 H   0  0  0  0  0  0  0  0  0  0  0  0
    7.6614   45.2173   37.8420 H   0  0  0  0  0  0  0  0  0  0  0  0
   11.0689   44.0509   38.4711 H   0  0  0  0  0  0  0  0  0  0  0  0
    7.6406   40.5099   39.0122 H   0  0  0  0  0  0  0  0  0  0  0  0
   11.6558   41.9028   39.5126 H   0  0  0  0  0  0  0  0  0  0  0  0
    9.9417   40.1414   39.7966 H   0  0  0  0  0  0  0  0  0  0  0  0
    9.8223   40.7183   31.7578 H   0  0  0  0  0  0  0  0  0  0  0  0
   11.3831   41.5422   31.4672 H   0  0  0  0  0  0  0  0  0  0  0  0
   11.7008   39.5030   30.3476 H   0  0  0  0  0  0  0  0  0  0  0  0
   10.1085   38.2751   32.6598 H   0  0  0  0  0  0  0  0  0  0  0  0
   13.6711   37.4598   31.2228 H   0  0  0  0  0  0  0  0  0  0  0  0
    9.0027   37.3850   30.9332 H   0  0  0  0  0  0  0  0  0  0  0  0
   11.2702   36.3058   32.5097 H   0  0  0  0  0  0  0  0  0  0  0  0
   12.1450   35.5137   30.6159 H   0  0  0  0  0  0  0  0  0  0  0  0
   12.3339   38.3567   34.7452 H   0  0  0  0  0  0  0  0  0  0  0  0
   16.7584   34.1805   32.4614 H   0  0  0  0  0  0  0  0  0  0  0  0
   15.3536   35.7356   37.5140 H   0  0  0  0  0  0  0  0  0  0  0  0
   16.6365   34.5313   37.1413 H   0  0  0  0  0  0  0  0  0  0  0  0
  1  2  2  0
  1  3  1  0
  3  4  1  0
  4  5  1  0
  6  1  1  0
  7  6  1  0
  6  8  1  0
  8  9  1  0
  9 10  1  0
  9 11  2  0
 10 12  1  0
 12 13  1  0
 13 14  2  0
 15 13  1  0
 14 16  1  0
 14 17  1  0
 18 15  2  0
 16 19  1  0
 16 20  2  0
 17 21  2  0
 21 18  1  0
  4 22  2  0
  4 23  1  0
 24 23  1  0
 24 25  1  0
 25 26  1  0
 25 27  1  0
 26 28  1  0
 27 29  1  0
 27 30  1  0
 30 28  1  0
 28 31  1  0
 30 32  1  0
 33 31  1  0
 34 31  1  0
 35 33  2  0
 33 36  1  0
 37 34  2  0
 38 35  1  0
 36 39  2  0
 36 37  1  0
 40 38  2  0
 40 39  1  0
 39 41  1  0
  6 42  1  6
  7 43  1  0
  7 44  1  0
  8 45  1  0
  8 46  1  0
 12 47  1  0
 12 48  1  0
 15 49  1  0
 17 50  1  0
 18 51  1  0
 21 52  1  0
 24 53  1  0
 24 54  1  0
 25 55  1  0
 27 56  1  0
 28 57  1  0
 29 58  1  0
 30 59  1  0
 32 60  1  0
 34 61  1  0
 38 62  1  0
 41 63  1  0
 41 64  1  0
M  CHG  3   5  -1  16   1  19  -1
M  END
>  <EmbedRMS>  (368) 
0.08878114975762273

$$$$

     RDKit          3D

 64 67  0  0  0  0  0  0  0  0999 V2000
   10.2845   43.7742   33.8069 C   0  0  0  0  0  0  0  0  0  0  0  0
   11.4069   43.5902   34.3637 O   0  0  0  0  0  0  0  0  0  0  0  0
    9.3681   42.7310   33.6989 O   0  0  0  0  0  0  0  0  0  0  0  0
    9.8860   41.2342   34.2839 P   0  0  0  0  0  5  0  0  0  0  0  0
   10.3655   41.4697   35.8747 O   0  0  0  0  0  1  0  0  0  0  0  0
    9.9494   45.1163   33.2547 C   0  0  2  0  0  0  0  0  0  0  0  0
   11.0751   46.0281   33.4731 N   0  0  0  0  0  0  0  0  0  0  0  0
    8.6780   45.6530   33.9426 C   0  0  0  0  0  0  0  0  0  0  0  0
    8.1844   46.9143   33.3024 C   0  0  0  0  0  0  0  0  0  0  0  0
    8.2512   48.1201   34.0103 O   0  0  0  0  0  0  0  0  0  0  0  0
    7.7147   46.8799   32.1320 O   0  0  0  0  0  0  0  0  0  0  0  0
    7.8243   49.3678   33.4642 C   0  0  0  0  0  0  0  0  0  0  0  0
    8.7924   49.8511   32.4068 C   0  0  0  0  0  0  0  0  0  0  0  0
    8.3609   50.3639   31.1549 C   0  0  0  0  0  0  0  0  0  0  0  0
   10.1712   49.7815   32.6783 C   0  0  0  0  0  0  0  0  0  0  0  0
    6.9709   50.5658   30.8558 N   0  0  0  0  0  4  0  0  0  0  0  0
    9.3192   50.7049   30.1850 C   0  0  0  0  0  0  0  0  0  0  0  0
   11.1079   50.1437   31.7095 C   0  0  0  0  0  0  0  0  0  0  0  0
    6.5091   50.3552   29.5770 O   0  0  0  0  0  1  0  0  0  0  0  0
    6.2339   51.1560   31.6723 O   0  0  0  0  0  0  0  0  0  0  0  0
   10.6827   50.5928   30.4606 C   0  0  0  0  0  0  0  0  0  0  0  0
    8.8086   40.1912   34.2076 O   0  0  0  0  0  0  0  0  0  0  0  0
   11.2386   40.7906   33.3693 O   0  0  0  0  0  0  0  0  0  0  0  0
   10.9192   40.6905   31.9959 C   0  0  0  0  0  0  0  0  0  0  0  0
   11.5177   39.3823   31.4410 C   0  0  0  0  0  0  0  0  0  0  0  0
   12.7496   39.0892   32.0755 O   0  0  0  0  0  0  0  0  0  0  0  0
   10.6037   38.1900   31.6659 C   0  0  0  0  0  0  0  0  0  0  0  0
   12.9401   37.6833   32.0276 C   0  0  0  0  0  0  0  0  0  0  0  0
    9.6377   38.0785   30.6474 O   0  0  0  0  0  0  0  0  0  0  0  0
   11.5803   37.0203   31.6937 C   0  0  0  0  0  0  0  0  0  0  0  0
   13.4902   37.2177   33.3237 N   0  0  0  0  0  0  0  0  0  0  0  0
   11.6117   36.3192   30.4680 O   0  0  0  0  0  0  0  0  0  0  0  0
   14.4759   36.3271   33.5731 C   0  0  0  0  0  0  0  0  0  0  0  0
   13.1176   37.6317   34.5688 C   0  0  0  0  0  0  0  0  0  0  0  0
   15.2064   35.6141   32.6742 N   0  0  0  0  0  0  0  0  0  0  0  0
   14.6729   36.2274   34.9184 C   0  0  0  0  0  0  0  0  0  0  0  0
   13.8221   37.0457   35.5783 N   0  0  0  0  0  0  0  0  0  0  0  0
   16.1637   34.7597   33.1549 C   0  0  0  0  0  0  0  0  0  0  0  0
   15.6514   35.3493   35.4133 C   0  0  0  0  0  0  0  0  0  0  0  0
   16.3791   34.6312   34.5044 N   0  0  0  0  0  0  0  0  0  0  0  0
   15.9001   35.1935   36.8091 N   0  0  0  0  0  0  0  0  0  0  0  0
    9.7645   45.0042   32.1621 H   0  0  0  0  0  0  0  0  0  0  0  0
   11.8968   45.6749   32.9293 H   0  0  0  0  0  0  0  0  0  0  0  0
   10.8457   46.9512   33.0409 H   0  0  0  0  0  0  0  0  0  0  0  0
    8.8835   45.8394   35.0197 H   0  0  0  0  0  0  0  0  0  0  0  0
    7.8632   44.8989   33.8800 H   0  0  0  0  0  0  0  0  0  0  0  0
    6.7948   49.2414   33.0721 H   0  0  0  0  0  0  0  0  0  0  0  0
    7.7877   50.1200   34.2796 H   0  0  0  0  0  0  0  0  0  0  0  0
   10.5233   49.4270   33.6393 H   0  0  0  0  0  0  0  0  0  0  0  0
    9.0085   51.0863   29.2205 H   0  0  0  0  0  0  0  0  0  0  0  0
   12.1658   50.0703   31.9261 H   0  0  0  0  0  0  0  0  0  0  0  0
   11.4109   50.8696   29.7092 H   0  0  0  0  0  0  0  0  0  0  0  0
   11.4002   41.5453   31.4742 H   0  0  0  0  0  0  0  0  0  0  0  0
    9.8313   40.7398   31.7557 H   0  0  0  0  0  0  0  0  0  0  0  0
   11.6991   39.5089   30.3487 H   0  0  0  0  0  0  0  0  0  0  0  0
   10.1131   38.2590   32.6664 H   0  0  0  0  0  0  0  0  0  0  0  0
   13.6800   37.4625   31.2265 H   0  0  0  0  0  0  0  0  0  0  0  0
    8.8953   38.6909   30.8891 H   0  0  0  0  0  0  0  0  0  0  0  0
   11.2830   36.3060   32.4929 H   0  0  0  0  0  0  0  0  0  0  0  0
   11.8859   36.9588   29.7593 H   0  0  0  0  0  0  0  0  0  0  0  0
   12.3360   38.3600   34.7441 H   0  0  0  0  0  0  0  0  0  0  0  0
   16.7572   34.1793   32.4621 H   0  0  0  0  0  0  0  0  0  0  0  0
   16.6362   34.5318   37.1416 H   0  0  0  0  0  0  0  0  0  0  0  0
   15.3528   35.7357   37.5140 H   0  0  0  0  0  0  0  0  0  0  0  0
  1  2  2  0
  1  3  1  0
  3  4  1  0
  4  5  1  0
  6  1  1  0
  7  6  1  0
  6  8  1  0
  8  9  1  0
  9 10  1  0
  9 11  2  0
 10 12  1  0
 12 13  1  0
 13 14  2  0
 15 13  1  0
 14 16  1  0
 14 17  1  0
 18 15  2  0
 16 19  1  0
 16 20  2  0
 17 21  2  0
 21 18  1  0
  4 22  2  0
  4 23  1  0
 24 23  1  0
 24 25  1  0
 25 26  1  0
 25 27  1  0
 26 28  1  0
 27 29  1  0
 27 30  1  0
 30 28  1  0
 28 31  1  0
 30 32  1  0
 33 31  1  0
 34 31  1  0
 35 33  2  0
 33 36  1  0
 37 34  2  0
 38 35  1  0
 36 39  2  0
 36 37  1  0
 40 38  2  0
 40 39  1  0
 39 41  1  0
  6 42  1  6
  7 43  1  0
  7 44  1  0
  8 45  1  0
  8 46  1  0
 12 47  1  0
 12 48  1  0
 15 49  1  0
 17 50  1  0
 18 51  1  0
 21 52  1  0
 24 53  1  0
 24 54  1  0
 25 55  1  0
 27 56  1  0
 28 57  1  0
 29 58  1  0
 30 59  1  0
 32 60  1  0
 34 61  1  0
 38 62  1  0
 41 63  1  0
 41 64  1  0
M  CHG  3   5  -1  16   1  19  -1
M  END
>  <EmbedRMS>  (369) 
0.08839960232328319

$$$$

     RDKit          3D

 64 67  0  0  0  0  0  0  0  0999 V2000
   10.2801   43.7759   33.8109 C   0  0  0  0  0  0  0  0  0  0  0  0
   11.4033   43.5920   34.3665 O   0  0  0  0  0  0  0  0  0  0  0  0
    9.3682   42.7295   33.6984 O   0  0  0  0  0  0  0  0  0  0  0  0
    9.8875   41.2331   34.2822 P   0  0  0  0  0  5  0  0  0  0  0  0
   10.3677   41.4687   35.8729 O   0  0  0  0  0  1  0  0  0  0  0  0
    9.9482   45.1207   33.2550 C   0  0  2  0  0  0  0  0  0  0  0  0
   11.0800   46.0242   33.4690 N   0  0  0  0  0  0  0  0  0  0  0  0
    8.6898   45.7072   33.9321 C   0  0  0  0  0  0  0  0  0  0  0  0
    7.4402   44.9384   33.6178 C   0  0  0  0  0  0  0  0  0  0  0  0
    6.5692   44.5947   34.6555 O   0  0  0  0  0  0  0  0  0  0  0  0
    7.1603   44.6476   32.4222 O   0  0  0  0  0  0  0  0  0  0  0  0
    5.3943   43.8184   34.4470 C   0  0  0  0  0  0  0  0  0  0  0  0
    4.6113   43.7337   35.7313 C   0  0  0  0  0  0  0  0  0  0  0  0
    4.8788   42.7484   36.7174 C   0  0  0  0  0  0  0  0  0  0  0  0
    3.5800   44.6645   35.9515 C   0  0  0  0  0  0  0  0  0  0  0  0
    5.9614   41.8125   36.5760 N   0  0  0  0  0  4  0  0  0  0  0  0
    4.0670   42.6893   37.8649 C   0  0  0  0  0  0  0  0  0  0  0  0
    2.7973   44.6000   37.1052 C   0  0  0  0  0  0  0  0  0  0  0  0
    7.1856   42.2313   36.1107 O   0  0  0  0  0  1  0  0  0  0  0  0
    5.8601   40.6613   37.0482 O   0  0  0  0  0  0  0  0  0  0  0  0
    3.0350   43.6093   38.0561 C   0  0  0  0  0  0  0  0  0  0  0  0
    8.8095   40.1906   34.2071 O   0  0  0  0  0  0  0  0  0  0  0  0
   11.2387   40.7905   33.3650 O   0  0  0  0  0  0  0  0  0  0  0  0
   10.9149   40.6849   31.9924 C   0  0  0  0  0  0  0  0  0  0  0  0
   11.5168   39.3771   31.4389 C   0  0  0  0  0  0  0  0  0  0  0  0
   12.7474   39.0853   32.0736 O   0  0  0  0  0  0  0  0  0  0  0  0
   10.6047   38.1868   31.6669 C   0  0  0  0  0  0  0  0  0  0  0  0
   12.9346   37.6789   32.0281 C   0  0  0  0  0  0  0  0  0  0  0  0
    9.6377   38.0917   30.6489 O   0  0  0  0  0  0  0  0  0  0  0  0
   11.5760   37.0128   31.7057 C   0  0  0  0  0  0  0  0  0  0  0  0
   13.4909   37.2177   33.3233 N   0  0  0  0  0  0  0  0  0  0  0  0
   11.6233   36.3370   30.4684 O   0  0  0  0  0  0  0  0  0  0  0  0
   14.4765   36.3271   33.5727 C   0  0  0  0  0  0  0  0  0  0  0  0
   13.1181   37.6315   34.5685 C   0  0  0  0  0  0  0  0  0  0  0  0
   15.2066   35.6137   32.6739 N   0  0  0  0  0  0  0  0  0  0  0  0
   14.6735   36.2276   34.9182 C   0  0  0  0  0  0  0  0  0  0  0  0
   13.8227   37.0458   35.5781 N   0  0  0  0  0  0  0  0  0  0  0  0
   16.1638   34.7592   33.1548 C   0  0  0  0  0  0  0  0  0  0  0  0
   15.6517   35.3493   35.4131 C   0  0  0  0  0  0  0  0  0  0  0  0
   16.3792   34.6309   34.5043 N   0  0  0  0  0  0  0  0  0  0  0  0
   15.9002   35.1934   36.8090 N   0  0  0  0  0  0  0  0  0  0  0  0
    9.7688   45.0189   32.1606 H   0  0  0  0  0  0  0  0  0  0  0  0
   11.8885   45.6824   32.8984 H   0  0  0  0  0  0  0  0  0  0  0  0
   10.8391   46.9607   33.0697 H   0  0  0  0  0  0  0  0  0  0  0  0
    8.5346   46.7520   33.5872 H   0  0  0  0  0  0  0  0  0  0  0  0
    8.8395   45.7379   35.0339 H   0  0  0  0  0  0  0  0  0  0  0  0
    5.6677   42.8028   34.0882 H   0  0  0  0  0  0  0  0  0  0  0  0
    4.7739   44.2884   33.6520 H   0  0  0  0  0  0  0  0  0  0  0  0
    3.3723   45.4369   35.2210 H   0  0  0  0  0  0  0  0  0  0  0  0
    4.2489   41.9411   38.6261 H   0  0  0  0  0  0  0  0  0  0  0  0
    2.0014   45.3172   37.2595 H   0  0  0  0  0  0  0  0  0  0  0  0
    2.4243   43.5593   38.9484 H   0  0  0  0  0  0  0  0  0  0  0  0
    9.8248   40.7214   31.7561 H   0  0  0  0  0  0  0  0  0  0  0  0
   11.3878   41.5413   31.4658 H   0  0  0  0  0  0  0  0  0  0  0  0
   11.6989   39.5008   30.3463 H   0  0  0  0  0  0  0  0  0  0  0  0
   10.1097   38.2774   32.6629 H   0  0  0  0  0  0  0  0  0  0  0  0
   13.6672   37.4541   31.2212 H   0  0  0  0  0  0  0  0  0  0  0  0
    8.9776   37.4161   30.9538 H   0  0  0  0  0  0  0  0  0  0  0  0
   11.2859   36.3041   32.5177 H   0  0  0  0  0  0  0  0  0  0  0  0
   10.8687   35.6919   30.4657 H   0  0  0  0  0  0  0  0  0  0  0  0
   12.3355   38.3586   34.7439 H   0  0  0  0  0  0  0  0  0  0  0  0
   16.7572   34.1786   32.4621 H   0  0  0  0  0  0  0  0  0  0  0  0
   15.3530   35.7358   37.5138 H   0  0  0  0  0  0  0  0  0  0  0  0
   16.6361   34.5315   37.1416 H   0  0  0  0  0  0  0  0  0  0  0  0
  1  2  2  0
  1  3  1  0
  3  4  1  0
  4  5  1  0
  6  1  1  0
  7  6  1  0
  6  8  1  0
  8  9  1  0
  9 10  1  0
  9 11  2  0
 10 12  1  0
 12 13  1  0
 13 14  2  0
 15 13  1  0
 14 16  1  0
 14 17  1  0
 18 15  2  0
 16 19  1  0
 16 20  2  0
 17 21  2  0
 21 18  1  0
  4 22  2  0
  4 23  1  0
 24 23  1  0
 24 25  1  0
 25 26  1  0
 25 27  1  0
 26 28  1  0
 27 29  1  0
 27 30  1  0
 30 28  1  0
 28 31  1  0
 30 32  1  0
 33 31  1  0
 34 31  1  0
 35 33  2  0
 33 36  1  0
 37 34  2  0
 38 35  1  0
 36 39  2  0
 36 37  1  0
 40 38  2  0
 40 39  1  0
 39 41  1  0
  6 42  1  6
  7 43  1  0
  7 44  1  0
  8 45  1  0
  8 46  1  0
 12 47  1  0
 12 48  1  0
 15 49  1  0
 17 50  1  0
 18 51  1  0
 21 52  1  0
 24 53  1  0
 24 54  1  0
 25 55  1  0
 27 56  1  0
 28 57  1  0
 29 58  1  0
 30 59  1  0
 32 60  1  0
 34 61  1  0
 38 62  1  0
 41 63  1  0
 41 64  1  0
M  CHG  3   5  -1  16   1  19  -1
M  END
>  <EmbedRMS>  (370) 
0.08927067232057741

$$$$

     RDKit          3D

 64 67  0  0  0  0  0  0  0  0999 V2000
   10.2864   43.7709   33.8098 C   0  0  0  0  0  0  0  0  0  0  0  0
   11.4101   43.5817   34.3616 O   0  0  0  0  0  0  0  0  0  0  0  0
    9.3670   42.7307   33.7016 O   0  0  0  0  0  0  0  0  0  0  0  0
    9.8849   41.2327   34.2837 P   0  0  0  0  0  5  0  0  0  0  0  0
   10.3652   41.4674   35.8745 O   0  0  0  0  0  1  0  0  0  0  0  0
    9.9608   45.1124   33.2473 C   0  0  2  0  0  0  0  0  0  0  0  0
   11.0654   46.0480   33.4748 N   0  0  0  0  0  0  0  0  0  0  0  0
    8.6654   45.6568   33.8718 C   0  0  0  0  0  0  0  0  0  0  0  0
    8.2725   46.9591   33.2470 C   0  0  0  0  0  0  0  0  0  0  0  0
    7.6310   46.9585   32.0031 O   0  0  0  0  0  0  0  0  0  0  0  0
    8.5496   48.0435   33.8291 O   0  0  0  0  0  0  0  0  0  0  0  0
    7.2170   48.1518   31.3378 C   0  0  0  0  0  0  0  0  0  0  0  0
    6.0443   48.8053   32.0396 C   0  0  0  0  0  0  0  0  0  0  0  0
    5.8591   50.2138   32.0321 C   0  0  0  0  0  0  0  0  0  0  0  0
    5.0962   47.9956   32.6952 C   0  0  0  0  0  0  0  0  0  0  0  0
    6.7243   51.0897   31.2898 N   0  0  0  0  0  4  0  0  0  0  0  0
    4.7908   50.7703   32.7569 C   0  0  0  0  0  0  0  0  0  0  0  0
    4.0307   48.5670   33.3920 C   0  0  0  0  0  0  0  0  0  0  0  0
    6.9780   52.3594   31.7555 O   0  0  0  0  0  1  0  0  0  0  0  0
    7.0767   50.7935   30.1295 O   0  0  0  0  0  0  0  0  0  0  0  0
    3.8856   49.9521   33.4335 C   0  0  0  0  0  0  0  0  0  0  0  0
    8.8073   40.1901   34.2072 O   0  0  0  0  0  0  0  0  0  0  0  0
   11.2378   40.7898   33.3683 O   0  0  0  0  0  0  0  0  0  0  0  0
   10.9186   40.6887   31.9946 C   0  0  0  0  0  0  0  0  0  0  0  0
   11.5180   39.3799   31.4397 C   0  0  0  0  0  0  0  0  0  0  0  0
   12.7483   39.0875   32.0749 O   0  0  0  0  0  0  0  0  0  0  0  0
   10.6053   38.1874   31.6656 C   0  0  0  0  0  0  0  0  0  0  0  0
   12.9361   37.6816   32.0288 C   0  0  0  0  0  0  0  0  0  0  0  0
    9.6423   38.0737   30.6445 O   0  0  0  0  0  0  0  0  0  0  0  0
   11.5765   37.0158   31.7046 C   0  0  0  0  0  0  0  0  0  0  0  0
   13.4908   37.2183   33.3237 N   0  0  0  0  0  0  0  0  0  0  0  0
   11.6103   36.3399   30.4680 O   0  0  0  0  0  0  0  0  0  0  0  0
   14.4762   36.3273   33.5728 C   0  0  0  0  0  0  0  0  0  0  0  0
   13.1181   37.6318   34.5689 C   0  0  0  0  0  0  0  0  0  0  0  0
   15.2063   35.6141   32.6739 N   0  0  0  0  0  0  0  0  0  0  0  0
   14.6733   36.2275   34.9182 C   0  0  0  0  0  0  0  0  0  0  0  0
   13.8226   37.0457   35.5783 N   0  0  0  0  0  0  0  0  0  0  0  0
   16.1636   34.7595   33.1546 C   0  0  0  0  0  0  0  0  0  0  0  0
   15.6515   35.3492   35.4130 C   0  0  0  0  0  0  0  0  0  0  0  0
   16.3791   34.6310   34.5041 N   0  0  0  0  0  0  0  0  0  0  0  0
   15.9003   35.1934   36.8089 N   0  0  0  0  0  0  0  0  0  0  0  0
    9.8099   44.9951   32.1511 H   0  0  0  0  0  0  0  0  0  0  0  0
   11.2753   46.1183   34.4981 H   0  0  0  0  0  0  0  0  0  0  0  0
   11.9218   45.7023   32.9825 H   0  0  0  0  0  0  0  0  0  0  0  0
    7.8363   44.9332   33.7137 H   0  0  0  0  0  0  0  0  0  0  0  0
    8.7953   45.7891   34.9689 H   0  0  0  0  0  0  0  0  0  0  0  0
    6.9102   47.8935   30.3030 H   0  0  0  0  0  0  0  0  0  0  0  0
    8.0886   48.8377   31.2807 H   0  0  0  0  0  0  0  0  0  0  0  0
    5.1872   46.9167   32.6814 H   0  0  0  0  0  0  0  0  0  0  0  0
    4.6411   51.8425   32.7742 H   0  0  0  0  0  0  0  0  0  0  0  0
    3.3178   47.9337   33.9041 H   0  0  0  0  0  0  0  0  0  0  0  0
    3.0602   50.3928   33.9775 H   0  0  0  0  0  0  0  0  0  0  0  0
   11.3991   41.5435   31.4725 H   0  0  0  0  0  0  0  0  0  0  0  0
    9.8306   40.7373   31.7548 H   0  0  0  0  0  0  0  0  0  0  0  0
   11.7002   39.5045   30.3472 H   0  0  0  0  0  0  0  0  0  0  0  0
   10.1104   38.2618   32.6636 H   0  0  0  0  0  0  0  0  0  0  0  0
   13.6696   37.4587   31.2222 H   0  0  0  0  0  0  0  0  0  0  0  0
    8.8999   38.6880   30.8814 H   0  0  0  0  0  0  0  0  0  0  0  0
   11.2690   36.3068   32.5091 H   0  0  0  0  0  0  0  0  0  0  0  0
   12.1427   35.5151   30.6153 H   0  0  0  0  0  0  0  0  0  0  0  0
   12.3359   38.3593   34.7445 H   0  0  0  0  0  0  0  0  0  0  0  0
   16.7569   34.1789   32.4618 H   0  0  0  0  0  0  0  0  0  0  0  0
   15.3530   35.7356   37.5138 H   0  0  0  0  0  0  0  0  0  0  0  0
   16.6362   34.5315   37.1413 H   0  0  0  0  0  0  0  0  0  0  0  0
  1  2  2  0
  1  3  1  0
  3  4  1  0
  4  5  1  0
  6  1  1  0
  7  6  1  0
  6  8  1  0
  8  9  1  0
  9 10  1  0
  9 11  2  0
 10 12  1  0
 12 13  1  0
 13 14  2  0
 15 13  1  0
 14 16  1  0
 14 17  1  0
 18 15  2  0
 16 19  1  0
 16 20  2  0
 17 21  2  0
 21 18  1  0
  4 22  2  0
  4 23  1  0
 24 23  1  0
 24 25  1  0
 25 26  1  0
 25 27  1  0
 26 28  1  0
 27 29  1  0
 27 30  1  0
 30 28  1  0
 28 31  1  0
 30 32  1  0
 33 31  1  0
 34 31  1  0
 35 33  2  0
 33 36  1  0
 37 34  2  0
 38 35  1  0
 36 39  2  0
 36 37  1  0
 40 38  2  0
 40 39  1  0
 39 41  1  0
  6 42  1  6
  7 43  1  0
  7 44  1  0
  8 45  1  0
  8 46  1  0
 12 47  1  0
 12 48  1  0
 15 49  1  0
 17 50  1  0
 18 51  1  0
 21 52  1  0
 24 53  1  0
 24 54  1  0
 25 55  1  0
 27 56  1  0
 28 57  1  0
 29 58  1  0
 30 59  1  0
 32 60  1  0
 34 61  1  0
 38 62  1  0
 41 63  1  0
 41 64  1  0
M  CHG  3   5  -1  16   1  19  -1
M  END
>  <EmbedRMS>  (371) 
0.08983634749522845

$$$$

     RDKit          3D

 64 67  0  0  0  0  0  0  0  0999 V2000
   10.2872   43.7716   33.8027 C   0  0  0  0  0  0  0  0  0  0  0  0
   11.4093   43.5882   34.3601 O   0  0  0  0  0  0  0  0  0  0  0  0
    9.3677   42.7310   33.6994 O   0  0  0  0  0  0  0  0  0  0  0  0
    9.8848   41.2343   34.2847 P   0  0  0  0  0  5  0  0  0  0  0  0
   10.3662   41.4688   35.8742 O   0  0  0  0  0  1  0  0  0  0  0  0
    9.9532   45.1151   33.2530 C   0  0  2  0  0  0  0  0  0  0  0  0
   11.0698   46.0348   33.4785 N   0  0  0  0  0  0  0  0  0  0  0  0
    8.6574   45.6662   33.8844 C   0  0  0  0  0  0  0  0  0  0  0  0
    8.7987   45.9256   35.3563 C   0  0  0  0  0  0  0  0  0  0  0  0
    8.9627   44.8482   36.2306 O   0  0  0  0  0  0  0  0  0  0  0  0
    8.7789   47.1096   35.7908 O   0  0  0  0  0  0  0  0  0  0  0  0
    9.0766   45.0041   37.6399 C   0  0  0  0  0  0  0  0  0  0  0  0
    9.3739   43.6656   38.2632 C   0  0  0  0  0  0  0  0  0  0  0  0
    8.3553   42.7142   38.5424 C   0  0  0  0  0  0  0  0  0  0  0  0
   10.7120   43.3472   38.5586 C   0  0  0  0  0  0  0  0  0  0  0  0
    6.9729   42.9562   38.2223 N   0  0  0  0  0  4  0  0  0  0  0  0
    8.7063   41.4991   39.1576 C   0  0  0  0  0  0  0  0  0  0  0  0
   11.0392   42.1286   39.1541 C   0  0  0  0  0  0  0  0  0  0  0  0
    5.9817   42.3778   38.9814 O   0  0  0  0  0  1  0  0  0  0  0  0
    6.6548   43.5362   37.1642 O   0  0  0  0  0  0  0  0  0  0  0  0
   10.0377   41.2091   39.4587 C   0  0  0  0  0  0  0  0  0  0  0  0
    8.8071   40.1917   34.2093 O   0  0  0  0  0  0  0  0  0  0  0  0
   11.2365   40.7899   33.3693 O   0  0  0  0  0  0  0  0  0  0  0  0
   10.9153   40.6897   31.9962 C   0  0  0  0  0  0  0  0  0  0  0  0
   11.5269   39.3898   31.4375 C   0  0  0  0  0  0  0  0  0  0  0  0
   12.7507   39.0917   32.0839 O   0  0  0  0  0  0  0  0  0  0  0  0
   10.6121   38.1916   31.6452 C   0  0  0  0  0  0  0  0  0  0  0  0
   12.9429   37.6853   32.0296 C   0  0  0  0  0  0  0  0  0  0  0  0
    9.6070   38.0858   30.6603 O   0  0  0  0  0  0  0  0  0  0  0  0
   11.5845   37.0186   31.6880 C   0  0  0  0  0  0  0  0  0  0  0  0
   13.4898   37.2164   33.3251 N   0  0  0  0  0  0  0  0  0  0  0  0
   11.6201   36.3063   30.4693 O   0  0  0  0  0  0  0  0  0  0  0  0
   14.4758   36.3264   33.5739 C   0  0  0  0  0  0  0  0  0  0  0  0
   13.1175   37.6308   34.5700 C   0  0  0  0  0  0  0  0  0  0  0  0
   15.2065   35.6139   32.6746 N   0  0  0  0  0  0  0  0  0  0  0  0
   14.6731   36.2268   34.9191 C   0  0  0  0  0  0  0  0  0  0  0  0
   13.8224   37.0451   35.5793 N   0  0  0  0  0  0  0  0  0  0  0  0
   16.1640   34.7596   33.1551 C   0  0  0  0  0  0  0  0  0  0  0  0
   15.6517   35.3489   35.4136 C   0  0  0  0  0  0  0  0  0  0  0  0
   16.3795   34.6310   34.5046 N   0  0  0  0  0  0  0  0  0  0  0  0
   15.9006   35.1931   36.8094 N   0  0  0  0  0  0  0  0  0  0  0  0
    9.7861   45.0047   32.1578 H   0  0  0  0  0  0  0  0  0  0  0  0
   10.8064   46.9735   33.0992 H   0  0  0  0  0  0  0  0  0  0  0  0
   11.8818   45.7167   32.8996 H   0  0  0  0  0  0  0  0  0  0  0  0
    8.3729   46.6084   33.3665 H   0  0  0  0  0  0  0  0  0  0  0  0
    7.8243   44.9478   33.7253 H   0  0  0  0  0  0  0  0  0  0  0  0
    9.8907   45.7270   37.8690 H   0  0  0  0  0  0  0  0  0  0  0  0
    8.1374   45.4275   38.0557 H   0  0  0  0  0  0  0  0  0  0  0  0
   11.5066   44.0475   38.3319 H   0  0  0  0  0  0  0  0  0  0  0  0
    7.9473   40.7616   39.3858 H   0  0  0  0  0  0  0  0  0  0  0  0
   12.0721   41.8975   39.3807 H   0  0  0  0  0  0  0  0  0  0  0  0
   10.2941   40.2650   39.9219 H   0  0  0  0  0  0  0  0  0  0  0  0
   11.3824   41.5527   31.4752 H   0  0  0  0  0  0  0  0  0  0  0  0
    9.8252   40.7189   31.7589 H   0  0  0  0  0  0  0  0  0  0  0  0
   11.7317   39.5340   30.3521 H   0  0  0  0  0  0  0  0  0  0  0  0
   10.1214   38.2682   32.6413 H   0  0  0  0  0  0  0  0  0  0  0  0
   13.6882   37.4708   31.2320 H   0  0  0  0  0  0  0  0  0  0  0  0
   10.0257   38.1751   29.7656 H   0  0  0  0  0  0  0  0  0  0  0  0
   11.2795   36.3124   32.4916 H   0  0  0  0  0  0  0  0  0  0  0  0
   11.9872   36.9100   29.7715 H   0  0  0  0  0  0  0  0  0  0  0  0
   12.3365   38.3597   34.7455 H   0  0  0  0  0  0  0  0  0  0  0  0
   16.7576   34.1795   32.4622 H   0  0  0  0  0  0  0  0  0  0  0  0
   15.3532   35.7352   37.5144 H   0  0  0  0  0  0  0  0  0  0  0  0
   16.6368   34.5316   37.1418 H   0  0  0  0  0  0  0  0  0  0  0  0
  1  2  2  0
  1  3  1  0
  3  4  1  0
  4  5  1  0
  6  1  1  0
  7  6  1  0
  6  8  1  0
  8  9  1  0
  9 10  1  0
  9 11  2  0
 10 12  1  0
 12 13  1  0
 13 14  2  0
 15 13  1  0
 14 16  1  0
 14 17  1  0
 18 15  2  0
 16 19  1  0
 16 20  2  0
 17 21  2  0
 21 18  1  0
  4 22  2  0
  4 23  1  0
 24 23  1  0
 24 25  1  0
 25 26  1  0
 25 27  1  0
 26 28  1  0
 27 29  1  0
 27 30  1  0
 30 28  1  0
 28 31  1  0
 30 32  1  0
 33 31  1  0
 34 31  1  0
 35 33  2  0
 33 36  1  0
 37 34  2  0
 38 35  1  0
 36 39  2  0
 36 37  1  0
 40 38  2  0
 40 39  1  0
 39 41  1  0
  6 42  1  6
  7 43  1  0
  7 44  1  0
  8 45  1  0
  8 46  1  0
 12 47  1  0
 12 48  1  0
 15 49  1  0
 17 50  1  0
 18 51  1  0
 21 52  1  0
 24 53  1  0
 24 54  1  0
 25 55  1  0
 27 56  1  0
 28 57  1  0
 29 58  1  0
 30 59  1  0
 32 60  1  0
 34 61  1  0
 38 62  1  0
 41 63  1  0
 41 64  1  0
M  CHG  3   5  -1  16   1  19  -1
M  END
>  <EmbedRMS>  (372) 
0.08709746080127206

$$$$

     RDKit          3D

 64 67  0  0  0  0  0  0  0  0999 V2000
   10.2829   43.7754   33.8078 C   0  0  0  0  0  0  0  0  0  0  0  0
   11.4086   43.5915   34.3580 O   0  0  0  0  0  0  0  0  0  0  0  0
    9.3669   42.7317   33.7013 O   0  0  0  0  0  0  0  0  0  0  0  0
    9.8865   41.2344   34.2838 P   0  0  0  0  0  5  0  0  0  0  0  0
   10.3666   41.4694   35.8745 O   0  0  0  0  0  1  0  0  0  0  0  0
    9.9538   45.1112   33.2430 C   0  0  2  0  0  0  0  0  0  0  0  0
   11.0723   46.0270   33.4847 N   0  0  0  0  0  0  0  0  0  0  0  0
    8.6391   45.6439   33.8516 C   0  0  0  0  0  0  0  0  0  0  0  0
    8.2338   46.9363   33.2158 C   0  0  0  0  0  0  0  0  0  0  0  0
    7.7370   46.9297   31.9083 O   0  0  0  0  0  0  0  0  0  0  0  0
    8.3852   48.0192   33.8440 O   0  0  0  0  0  0  0  0  0  0  0  0
    7.4992   48.1166   31.1539 C   0  0  0  0  0  0  0  0  0  0  0  0
    8.8045   48.7966   30.8061 C   0  0  0  0  0  0  0  0  0  0  0  0
    9.0203   50.1863   30.9955 C   0  0  0  0  0  0  0  0  0  0  0  0
    9.8055   48.0273   30.1847 C   0  0  0  0  0  0  0  0  0  0  0  0
    8.0435   51.0233   31.6310 N   0  0  0  0  0  4  0  0  0  0  0  0
   10.2234   50.7628   30.5528 C   0  0  0  0  0  0  0  0  0  0  0  0
   11.0016   48.6138   29.7692 C   0  0  0  0  0  0  0  0  0  0  0  0
    7.6030   50.7221   32.8987 O   0  0  0  0  0  1  0  0  0  0  0  0
    7.7905   52.1503   31.1577 O   0  0  0  0  0  0  0  0  0  0  0  0
   11.2088   49.9801   29.9496 C   0  0  0  0  0  0  0  0  0  0  0  0
    8.8091   40.1914   34.2077 O   0  0  0  0  0  0  0  0  0  0  0  0
   11.2390   40.7910   33.3682 O   0  0  0  0  0  0  0  0  0  0  0  0
   10.9194   40.6896   31.9946 C   0  0  0  0  0  0  0  0  0  0  0  0
   11.5171   39.3801   31.4397 C   0  0  0  0  0  0  0  0  0  0  0  0
   12.7478   39.0862   32.0734 O   0  0  0  0  0  0  0  0  0  0  0  0
   10.6031   38.1891   31.6666 C   0  0  0  0  0  0  0  0  0  0  0  0
   12.9335   37.6797   32.0280 C   0  0  0  0  0  0  0  0  0  0  0  0
    9.6397   38.0777   30.6456 O   0  0  0  0  0  0  0  0  0  0  0  0
   11.5739   37.0154   31.7057 C   0  0  0  0  0  0  0  0  0  0  0  0
   13.4903   37.2178   33.3231 N   0  0  0  0  0  0  0  0  0  0  0  0
   11.6211   36.3376   30.4695 O   0  0  0  0  0  0  0  0  0  0  0  0
   14.4761   36.3273   33.5725 C   0  0  0  0  0  0  0  0  0  0  0  0
   13.1178   37.6316   34.5684 C   0  0  0  0  0  0  0  0  0  0  0  0
   15.2063   35.6139   32.6737 N   0  0  0  0  0  0  0  0  0  0  0  0
   14.6734   36.2277   34.9180 C   0  0  0  0  0  0  0  0  0  0  0  0
   13.8225   37.0459   35.5779 N   0  0  0  0  0  0  0  0  0  0  0  0
   16.1636   34.7594   33.1546 C   0  0  0  0  0  0  0  0  0  0  0  0
   15.6515   35.3494   35.4129 C   0  0  0  0  0  0  0  0  0  0  0  0
   16.3791   34.6311   34.5041 N   0  0  0  0  0  0  0  0  0  0  0  0
   15.9001   35.1935   36.8088 N   0  0  0  0  0  0  0  0  0  0  0  0
    9.8231   44.9840   32.1450 H   0  0  0  0  0  0  0  0  0  0  0  0
   11.0745   46.3272   34.4874 H   0  0  0  0  0  0  0  0  0  0  0  0
   10.9433   46.8841   32.8994 H   0  0  0  0  0  0  0  0  0  0  0  0
    8.7502   45.7787   34.9504 H   0  0  0  0  0  0  0  0  0  0  0  0
    7.8222   44.9091   33.6833 H   0  0  0  0  0  0  0  0  0  0  0  0
    6.9939   47.8331   30.2069 H   0  0  0  0  0  0  0  0  0  0  0  0
    6.7944   48.7692   31.7040 H   0  0  0  0  0  0  0  0  0  0  0  0
    9.6553   46.9680   30.0147 H   0  0  0  0  0  0  0  0  0  0  0  0
   10.4036   51.8216   30.6912 H   0  0  0  0  0  0  0  0  0  0  0  0
   11.7649   48.0091   29.2968 H   0  0  0  0  0  0  0  0  0  0  0  0
   12.1348   50.4343   29.6212 H   0  0  0  0  0  0  0  0  0  0  0  0
    9.8315   40.7397   31.7549 H   0  0  0  0  0  0  0  0  0  0  0  0
   11.4008   41.5437   31.4721 H   0  0  0  0  0  0  0  0  0  0  0  0
   11.6983   39.5042   30.3470 H   0  0  0  0  0  0  0  0  0  0  0  0
   10.1090   38.2632   32.6649 H   0  0  0  0  0  0  0  0  0  0  0  0
   13.6656   37.4541   31.2207 H   0  0  0  0  0  0  0  0  0  0  0  0
    8.8965   38.6901   30.8851 H   0  0  0  0  0  0  0  0  0  0  0  0
   11.2846   36.3060   32.5175 H   0  0  0  0  0  0  0  0  0  0  0  0
   10.8523   35.7095   30.4590 H   0  0  0  0  0  0  0  0  0  0  0  0
   12.3353   38.3588   34.7439 H   0  0  0  0  0  0  0  0  0  0  0  0
   16.7570   34.1788   32.4619 H   0  0  0  0  0  0  0  0  0  0  0  0
   15.3529   35.7359   37.5136 H   0  0  0  0  0  0  0  0  0  0  0  0
   16.6360   34.5316   37.1413 H   0  0  0  0  0  0  0  0  0  0  0  0
  1  2  2  0
  1  3  1  0
  3  4  1  0
  4  5  1  0
  6  1  1  0
  7  6  1  0
  6  8  1  0
  8  9  1  0
  9 10  1  0
  9 11  2  0
 10 12  1  0
 12 13  1  0
 13 14  2  0
 15 13  1  0
 14 16  1  0
 14 17  1  0
 18 15  2  0
 16 19  1  0
 16 20  2  0
 17 21  2  0
 21 18  1  0
  4 22  2  0
  4 23  1  0
 24 23  1  0
 24 25  1  0
 25 26  1  0
 25 27  1  0
 26 28  1  0
 27 29  1  0
 27 30  1  0
 30 28  1  0
 28 31  1  0
 30 32  1  0
 33 31  1  0
 34 31  1  0
 35 33  2  0
 33 36  1  0
 37 34  2  0
 38 35  1  0
 36 39  2  0
 36 37  1  0
 40 38  2  0
 40 39  1  0
 39 41  1  0
  6 42  1  6
  7 43  1  0
  7 44  1  0
  8 45  1  0
  8 46  1  0
 12 47  1  0
 12 48  1  0
 15 49  1  0
 17 50  1  0
 18 51  1  0
 21 52  1  0
 24 53  1  0
 24 54  1  0
 25 55  1  0
 27 56  1  0
 28 57  1  0
 29 58  1  0
 30 59  1  0
 32 60  1  0
 34 61  1  0
 38 62  1  0
 41 63  1  0
 41 64  1  0
M  CHG  3   5  -1  16   1  19  -1
M  END
>  <EmbedRMS>  (373) 
0.08915404919221269

$$$$

     RDKit          3D

 64 67  0  0  0  0  0  0  0  0999 V2000
   10.2813   43.7766   33.8103 C   0  0  0  0  0  0  0  0  0  0  0  0
   11.4067   43.5929   34.3610 O   0  0  0  0  0  0  0  0  0  0  0  0
    9.3679   42.7309   33.7072 O   0  0  0  0  0  0  0  0  0  0  0  0
    9.8872   41.2333   34.2842 P   0  0  0  0  0  5  0  0  0  0  0  0
   10.3692   41.4662   35.8744 O   0  0  0  0  0  1  0  0  0  0  0  0
    9.9647   45.1105   33.2218 C   0  0  2  0  0  0  0  0  0  0  0  0
   11.0688   46.0307   33.4986 N   0  0  0  0  0  0  0  0  0  0  0  0
    8.6301   45.6822   33.7604 C   0  0  0  0  0  0  0  0  0  0  0  0
    7.4147   44.9687   33.2362 C   0  0  0  0  0  0  0  0  0  0  0  0
    7.5320   44.0588   32.1818 O   0  0  0  0  0  0  0  0  0  0  0  0
    6.2869   45.2178   33.7421 O   0  0  0  0  0  0  0  0  0  0  0  0
    6.4332   43.3367   31.6395 C   0  0  0  0  0  0  0  0  0  0  0  0
    6.9480   42.2906   30.6820 C   0  0  0  0  0  0  0  0  0  0  0  0
    7.8616   42.6050   29.6395 C   0  0  0  0  0  0  0  0  0  0  0  0
    6.5442   40.9544   30.8602 C   0  0  0  0  0  0  0  0  0  0  0  0
    8.2943   43.9548   29.3910 N   0  0  0  0  0  4  0  0  0  0  0  0
    8.3670   41.5672   28.8355 C   0  0  0  0  0  0  0  0  0  0  0  0
    7.0415   39.9441   30.0369 C   0  0  0  0  0  0  0  0  0  0  0  0
    7.4039   45.0008   29.4611 O   0  0  0  0  0  1  0  0  0  0  0  0
    9.4443   44.1735   28.9570 O   0  0  0  0  0  0  0  0  0  0  0  0
    7.9545   40.2491   29.0298 C   0  0  0  0  0  0  0  0  0  0  0  0
    8.8084   40.1918   34.2073 O   0  0  0  0  0  0  0  0  0  0  0  0
   11.2369   40.7929   33.3633 O   0  0  0  0  0  0  0  0  0  0  0  0
   10.9098   40.6845   31.9915 C   0  0  0  0  0  0  0  0  0  0  0  0
   11.5144   39.3772   31.4385 C   0  0  0  0  0  0  0  0  0  0  0  0
   12.7456   39.0865   32.0733 O   0  0  0  0  0  0  0  0  0  0  0  0
   10.6044   38.1857   31.6674 C   0  0  0  0  0  0  0  0  0  0  0  0
   12.9343   37.6800   32.0281 C   0  0  0  0  0  0  0  0  0  0  0  0
    9.6392   38.0872   30.6492 O   0  0  0  0  0  0  0  0  0  0  0  0
   11.5765   37.0129   31.7062 C   0  0  0  0  0  0  0  0  0  0  0  0
   13.4912   37.2187   33.3232 N   0  0  0  0  0  0  0  0  0  0  0  0
   11.6239   36.3368   30.4690 O   0  0  0  0  0  0  0  0  0  0  0  0
   14.4765   36.3276   33.5726 C   0  0  0  0  0  0  0  0  0  0  0  0
   13.1183   37.6321   34.5685 C   0  0  0  0  0  0  0  0  0  0  0  0
   15.2065   35.6141   32.6738 N   0  0  0  0  0  0  0  0  0  0  0  0
   14.6734   36.2278   34.9181 C   0  0  0  0  0  0  0  0  0  0  0  0
   13.8226   37.0459   35.5780 N   0  0  0  0  0  0  0  0  0  0  0  0
   16.1636   34.7594   33.1546 C   0  0  0  0  0  0  0  0  0  0  0  0
   15.6515   35.3493   35.4130 C   0  0  0  0  0  0  0  0  0  0  0  0
   16.3790   34.6310   34.5041 N   0  0  0  0  0  0  0  0  0  0  0  0
   15.9001   35.1934   36.8089 N   0  0  0  0  0  0  0  0  0  0  0  0
    9.8956   44.9870   32.1180 H   0  0  0  0  0  0  0  0  0  0  0  0
   10.9220   46.9061   32.9448 H   0  0  0  0  0  0  0  0  0  0  0  0
   11.0554   46.2985   34.5107 H   0  0  0  0  0  0  0  0  0  0  0  0
    8.6265   45.6436   34.8719 H   0  0  0  0  0  0  0  0  0  0  0  0
    8.5438   46.7488   33.4606 H   0  0  0  0  0  0  0  0  0  0  0  0
    5.8663   42.8628   32.4712 H   0  0  0  0  0  0  0  0  0  0  0  0
    5.7438   44.0282   31.1115 H   0  0  0  0  0  0  0  0  0  0  0  0
    5.8488   40.6884   31.6467 H   0  0  0  0  0  0  0  0  0  0  0  0
    9.0699   41.7832   28.0409 H   0  0  0  0  0  0  0  0  0  0  0  0
    6.7247   38.9200   30.1865 H   0  0  0  0  0  0  0  0  0  0  0  0
    8.3436   39.4621   28.3967 H   0  0  0  0  0  0  0  0  0  0  0  0
   11.3775   41.5418   31.4619 H   0  0  0  0  0  0  0  0  0  0  0  0
    9.8187   40.7178   31.7580 H   0  0  0  0  0  0  0  0  0  0  0  0
   11.6954   39.5009   30.3456 H   0  0  0  0  0  0  0  0  0  0  0  0
   10.1086   38.2765   32.6630 H   0  0  0  0  0  0  0  0  0  0  0  0
   13.6669   37.4558   31.2210 H   0  0  0  0  0  0  0  0  0  0  0  0
    8.9743   37.4183   30.9583 H   0  0  0  0  0  0  0  0  0  0  0  0
   11.2870   36.3040   32.5184 H   0  0  0  0  0  0  0  0  0  0  0  0
   10.8690   35.6921   30.4661 H   0  0  0  0  0  0  0  0  0  0  0  0
   12.3356   38.3592   34.7440 H   0  0  0  0  0  0  0  0  0  0  0  0
   16.7569   34.1787   32.4619 H   0  0  0  0  0  0  0  0  0  0  0  0
   16.6359   34.5315   37.1414 H   0  0  0  0  0  0  0  0  0  0  0  0
   15.3529   35.7358   37.5137 H   0  0  0  0  0  0  0  0  0  0  0  0
  1  2  2  0
  1  3  1  0
  3  4  1  0
  4  5  1  0
  6  1  1  0
  7  6  1  0
  6  8  1  0
  8  9  1  0
  9 10  1  0
  9 11  2  0
 10 12  1  0
 12 13  1  0
 13 14  2  0
 15 13  1  0
 14 16  1  0
 14 17  1  0
 18 15  2  0
 16 19  1  0
 16 20  2  0
 17 21  2  0
 21 18  1  0
  4 22  2  0
  4 23  1  0
 24 23  1  0
 24 25  1  0
 25 26  1  0
 25 27  1  0
 26 28  1  0
 27 29  1  0
 27 30  1  0
 30 28  1  0
 28 31  1  0
 30 32  1  0
 33 31  1  0
 34 31  1  0
 35 33  2  0
 33 36  1  0
 37 34  2  0
 38 35  1  0
 36 39  2  0
 36 37  1  0
 40 38  2  0
 40 39  1  0
 39 41  1  0
  6 42  1  6
  7 43  1  0
  7 44  1  0
  8 45  1  0
  8 46  1  0
 12 47  1  0
 12 48  1  0
 15 49  1  0
 17 50  1  0
 18 51  1  0
 21 52  1  0
 24 53  1  0
 24 54  1  0
 25 55  1  0
 27 56  1  0
 28 57  1  0
 29 58  1  0
 30 59  1  0
 32 60  1  0
 34 61  1  0
 38 62  1  0
 41 63  1  0
 41 64  1  0
M  CHG  3   5  -1  16   1  19  -1
M  END
>  <EmbedRMS>  (374) 
0.08909090887220368

$$$$

     RDKit          3D

 64 67  0  0  0  0  0  0  0  0999 V2000
   10.2869   43.7702   33.7997 C   0  0  0  0  0  0  0  0  0  0  0  0
   11.4104   43.5848   34.3531 O   0  0  0  0  0  0  0  0  0  0  0  0
    9.3665   42.7307   33.6985 O   0  0  0  0  0  0  0  0  0  0  0  0
    9.8847   41.2348   34.2854 P   0  0  0  0  0  5  0  0  0  0  0  0
   10.3656   41.4727   35.8756 O   0  0  0  0  0  1  0  0  0  0  0  0
    9.9541   45.1152   33.2511 C   0  0  2  0  0  0  0  0  0  0  0  0
   11.0691   46.0344   33.4865 N   0  0  0  0  0  0  0  0  0  0  0  0
    8.6535   45.6634   33.8763 C   0  0  0  0  0  0  0  0  0  0  0  0
    8.7142   45.7043   35.3748 C   0  0  0  0  0  0  0  0  0  0  0  0
    9.5355   46.6429   36.0085 O   0  0  0  0  0  0  0  0  0  0  0  0
    8.0596   44.8627   36.0478 O   0  0  0  0  0  0  0  0  0  0  0  0
    9.8142   46.6212   37.4078 C   0  0  0  0  0  0  0  0  0  0  0  0
   10.6531   45.4132   37.7618 C   0  0  0  0  0  0  0  0  0  0  0  0
   10.2983   44.4970   38.7878 C   0  0  0  0  0  0  0  0  0  0  0  0
   11.8724   45.2393   37.0822 C   0  0  0  0  0  0  0  0  0  0  0  0
    9.0745   44.6167   39.5275 N   0  0  0  0  0  4  0  0  0  0  0  0
   11.1739   43.4439   39.1018 C   0  0  0  0  0  0  0  0  0  0  0  0
   12.7195   44.1757   37.3955 C   0  0  0  0  0  0  0  0  0  0  0  0
    9.0781   44.3933   40.8850 O   0  0  0  0  0  1  0  0  0  0  0  0
    7.9810   44.6515   38.9277 O   0  0  0  0  0  0  0  0  0  0  0  0
   12.3715   43.2801   38.4045 C   0  0  0  0  0  0  0  0  0  0  0  0
    8.8077   40.1915   34.2104 O   0  0  0  0  0  0  0  0  0  0  0  0
   11.2365   40.7901   33.3699 O   0  0  0  0  0  0  0  0  0  0  0  0
   10.9153   40.6898   31.9968 C   0  0  0  0  0  0  0  0  0  0  0  0
   11.5269   39.3900   31.4378 C   0  0  0  0  0  0  0  0  0  0  0  0
   12.7507   39.0917   32.0840 O   0  0  0  0  0  0  0  0  0  0  0  0
   10.6121   38.1916   31.6453 C   0  0  0  0  0  0  0  0  0  0  0  0
   12.9429   37.6854   32.0296 C   0  0  0  0  0  0  0  0  0  0  0  0
    9.6070   38.0859   30.6603 O   0  0  0  0  0  0  0  0  0  0  0  0
   11.5845   37.0187   31.6880 C   0  0  0  0  0  0  0  0  0  0  0  0
   13.4899   37.2164   33.3250 N   0  0  0  0  0  0  0  0  0  0  0  0
   11.6202   36.3064   30.4693 O   0  0  0  0  0  0  0  0  0  0  0  0
   14.4758   36.3264   33.5739 C   0  0  0  0  0  0  0  0  0  0  0  0
   13.1176   37.6309   34.5700 C   0  0  0  0  0  0  0  0  0  0  0  0
   15.2065   35.6139   32.6746 N   0  0  0  0  0  0  0  0  0  0  0  0
   14.6731   36.2268   34.9191 C   0  0  0  0  0  0  0  0  0  0  0  0
   13.8225   37.0451   35.5793 N   0  0  0  0  0  0  0  0  0  0  0  0
   16.1640   34.7596   33.1551 C   0  0  0  0  0  0  0  0  0  0  0  0
   15.6517   35.3489   35.4136 C   0  0  0  0  0  0  0  0  0  0  0  0
   16.3795   34.6310   34.5046 N   0  0  0  0  0  0  0  0  0  0  0  0
   15.9006   35.1931   36.8094 N   0  0  0  0  0  0  0  0  0  0  0  0
    9.7953   45.0112   32.1541 H   0  0  0  0  0  0  0  0  0  0  0  0
   10.8134   46.9724   33.1005 H   0  0  0  0  0  0  0  0  0  0  0  0
   11.8883   45.7134   32.9196 H   0  0  0  0  0  0  0  0  0  0  0  0
    7.7968   45.0302   33.5559 H   0  0  0  0  0  0  0  0  0  0  0  0
    8.4568   46.6886   33.4959 H   0  0  0  0  0  0  0  0  0  0  0  0
    8.8671   46.6856   37.9770 H   0  0  0  0  0  0  0  0  0  0  0  0
   10.3945   47.5330   37.6618 H   0  0  0  0  0  0  0  0  0  0  0  0
   12.1697   45.9343   36.3063 H   0  0  0  0  0  0  0  0  0  0  0  0
   10.9179   42.7364   39.8805 H   0  0  0  0  0  0  0  0  0  0  0  0
   13.6508   44.0499   36.8586 H   0  0  0  0  0  0  0  0  0  0  0  0
   13.0317   42.4579   38.6487 H   0  0  0  0  0  0  0  0  0  0  0  0
   11.3824   41.5528   31.4757 H   0  0  0  0  0  0  0  0  0  0  0  0
    9.8253   40.7191   31.7595 H   0  0  0  0  0  0  0  0  0  0  0  0
   11.7316   39.5343   30.3524 H   0  0  0  0  0  0  0  0  0  0  0  0
   10.1213   38.2681   32.6413 H   0  0  0  0  0  0  0  0  0  0  0  0
   13.6882   37.4710   31.2320 H   0  0  0  0  0  0  0  0  0  0  0  0
   10.0258   38.1754   29.7657 H   0  0  0  0  0  0  0  0  0  0  0  0
   11.2796   36.3124   32.4916 H   0  0  0  0  0  0  0  0  0  0  0  0
   11.9872   36.9101   29.7715 H   0  0  0  0  0  0  0  0  0  0  0  0
   12.3367   38.3598   34.7454 H   0  0  0  0  0  0  0  0  0  0  0  0
   16.7576   34.1795   32.4622 H   0  0  0  0  0  0  0  0  0  0  0  0
   16.6368   34.5316   37.1418 H   0  0  0  0  0  0  0  0  0  0  0  0
   15.3532   35.7352   37.5144 H   0  0  0  0  0  0  0  0  0  0  0  0
  1  2  2  0
  1  3  1  0
  3  4  1  0
  4  5  1  0
  6  1  1  0
  7  6  1  0
  6  8  1  0
  8  9  1  0
  9 10  1  0
  9 11  2  0
 10 12  1  0
 12 13  1  0
 13 14  2  0
 15 13  1  0
 14 16  1  0
 14 17  1  0
 18 15  2  0
 16 19  1  0
 16 20  2  0
 17 21  2  0
 21 18  1  0
  4 22  2  0
  4 23  1  0
 24 23  1  0
 24 25  1  0
 25 26  1  0
 25 27  1  0
 26 28  1  0
 27 29  1  0
 27 30  1  0
 30 28  1  0
 28 31  1  0
 30 32  1  0
 33 31  1  0
 34 31  1  0
 35 33  2  0
 33 36  1  0
 37 34  2  0
 38 35  1  0
 36 39  2  0
 36 37  1  0
 40 38  2  0
 40 39  1  0
 39 41  1  0
  6 42  1  6
  7 43  1  0
  7 44  1  0
  8 45  1  0
  8 46  1  0
 12 47  1  0
 12 48  1  0
 15 49  1  0
 17 50  1  0
 18 51  1  0
 21 52  1  0
 24 53  1  0
 24 54  1  0
 25 55  1  0
 27 56  1  0
 28 57  1  0
 29 58  1  0
 30 59  1  0
 32 60  1  0
 34 61  1  0
 38 62  1  0
 41 63  1  0
 41 64  1  0
M  CHG  3   5  -1  16   1  19  -1
M  END
>  <EmbedRMS>  (375) 
0.0867420166377568

$$$$

     RDKit          3D

 64 67  0  0  0  0  0  0  0  0999 V2000
   10.2864   43.7708   33.8099 C   0  0  0  0  0  0  0  0  0  0  0  0
   11.4102   43.5817   34.3616 O   0  0  0  0  0  0  0  0  0  0  0  0
    9.3670   42.7307   33.7018 O   0  0  0  0  0  0  0  0  0  0  0  0
    9.8850   41.2327   34.2838 P   0  0  0  0  0  5  0  0  0  0  0  0
   10.3652   41.4674   35.8746 O   0  0  0  0  0  1  0  0  0  0  0  0
    9.9613   45.1118   33.2467 C   0  0  2  0  0  0  0  0  0  0  0  0
   11.0650   46.0484   33.4751 N   0  0  0  0  0  0  0  0  0  0  0  0
    8.6634   45.6557   33.8672 C   0  0  0  0  0  0  0  0  0  0  0  0
    8.2959   46.9762   33.2659 C   0  0  0  0  0  0  0  0  0  0  0  0
    7.7818   47.0193   31.9649 O   0  0  0  0  0  0  0  0  0  0  0  0
    8.4929   48.0388   33.9167 O   0  0  0  0  0  0  0  0  0  0  0  0
    7.5395   48.2386   31.2635 C   0  0  0  0  0  0  0  0  0  0  0  0
    8.8352   48.9308   30.8949 C   0  0  0  0  0  0  0  0  0  0  0  0
    8.9413   50.3456   30.8532 C   0  0  0  0  0  0  0  0  0  0  0  0
    9.9625   48.1511   30.5697 C   0  0  0  0  0  0  0  0  0  0  0  0
    7.7991   51.1935   31.0609 N   0  0  0  0  0  4  0  0  0  0  0  0
   10.1897   50.9337   30.5803 C   0  0  0  0  0  0  0  0  0  0  0  0
   11.1881   48.7538   30.2845 C   0  0  0  0  0  0  0  0  0  0  0  0
    6.5986   50.8980   30.4571 O   0  0  0  0  0  1  0  0  0  0  0  0
    7.9358   52.3028   31.6172 O   0  0  0  0  0  0  0  0  0  0  0  0
   11.3046   50.1421   30.3019 C   0  0  0  0  0  0  0  0  0  0  0  0
    8.8074   40.1901   34.2071 O   0  0  0  0  0  0  0  0  0  0  0  0
   11.2381   40.7898   33.3686 O   0  0  0  0  0  0  0  0  0  0  0  0
   10.9194   40.6894   31.9947 C   0  0  0  0  0  0  0  0  0  0  0  0
   11.5171   39.3801   31.4396 C   0  0  0  0  0  0  0  0  0  0  0  0
   12.7478   39.0861   32.0733 O   0  0  0  0  0  0  0  0  0  0  0  0
   10.6031   38.1891   31.6666 C   0  0  0  0  0  0  0  0  0  0  0  0
   12.9335   37.6796   32.0279 C   0  0  0  0  0  0  0  0  0  0  0  0
    9.6397   38.0777   30.6456 O   0  0  0  0  0  0  0  0  0  0  0  0
   11.5739   37.0154   31.7057 C   0  0  0  0  0  0  0  0  0  0  0  0
   13.4903   37.2178   33.3231 N   0  0  0  0  0  0  0  0  0  0  0  0
   11.6211   36.3376   30.4695 O   0  0  0  0  0  0  0  0  0  0  0  0
   14.4761   36.3273   33.5725 C   0  0  0  0  0  0  0  0  0  0  0  0
   13.1179   37.6317   34.5684 C   0  0  0  0  0  0  0  0  0  0  0  0
   15.2063   35.6139   32.6737 N   0  0  0  0  0  0  0  0  0  0  0  0
   14.6733   36.2277   34.9179 C   0  0  0  0  0  0  0  0  0  0  0  0
   13.8225   37.0459   35.5779 N   0  0  0  0  0  0  0  0  0  0  0  0
   16.1636   34.7594   33.1546 C   0  0  0  0  0  0  0  0  0  0  0  0
   15.6515   35.3494   35.4129 C   0  0  0  0  0  0  0  0  0  0  0  0
   16.3791   34.6311   34.5041 N   0  0  0  0  0  0  0  0  0  0  0  0
   15.9001   35.1935   36.8088 N   0  0  0  0  0  0  0  0  0  0  0  0
    9.8130   44.9932   32.1505 H   0  0  0  0  0  0  0  0  0  0  0  0
   11.2754   46.1175   34.4983 H   0  0  0  0  0  0  0  0  0  0  0  0
   11.9212   45.7053   32.9807 H   0  0  0  0  0  0  0  0  0  0  0  0
    7.8292   44.9450   33.6808 H   0  0  0  0  0  0  0  0  0  0  0  0
    8.7814   45.7617   34.9686 H   0  0  0  0  0  0  0  0  0  0  0  0
    6.8998   48.8853   31.9005 H   0  0  0  0  0  0  0  0  0  0  0  0
    6.9828   48.0087   30.3313 H   0  0  0  0  0  0  0  0  0  0  0  0
    9.8995   47.0704   30.5519 H   0  0  0  0  0  0  0  0  0  0  0  0
   10.2932   52.0112   30.5559 H   0  0  0  0  0  0  0  0  0  0  0  0
   12.0504   48.1419   30.0529 H   0  0  0  0  0  0  0  0  0  0  0  0
   12.2571   50.6071   30.0828 H   0  0  0  0  0  0  0  0  0  0  0  0
   11.4014   41.5437   31.4731 H   0  0  0  0  0  0  0  0  0  0  0  0
    9.8316   40.7398   31.7544 H   0  0  0  0  0  0  0  0  0  0  0  0
   11.6982   39.5042   30.3470 H   0  0  0  0  0  0  0  0  0  0  0  0
   10.1090   38.2632   32.6649 H   0  0  0  0  0  0  0  0  0  0  0  0
   13.6656   37.4541   31.2207 H   0  0  0  0  0  0  0  0  0  0  0  0
    8.8965   38.6900   30.8851 H   0  0  0  0  0  0  0  0  0  0  0  0
   11.2846   36.3060   32.5175 H   0  0  0  0  0  0  0  0  0  0  0  0
   10.8523   35.7094   30.4590 H   0  0  0  0  0  0  0  0  0  0  0  0
   12.3353   38.3588   34.7439 H   0  0  0  0  0  0  0  0  0  0  0  0
   16.7570   34.1788   32.4619 H   0  0  0  0  0  0  0  0  0  0  0  0
   15.3529   35.7359   37.5136 H   0  0  0  0  0  0  0  0  0  0  0  0
   16.6360   34.5317   37.1414 H   0  0  0  0  0  0  0  0  0  0  0  0
  1  2  2  0
  1  3  1  0
  3  4  1  0
  4  5  1  0
  6  1  1  0
  7  6  1  0
  6  8  1  0
  8  9  1  0
  9 10  1  0
  9 11  2  0
 10 12  1  0
 12 13  1  0
 13 14  2  0
 15 13  1  0
 14 16  1  0
 14 17  1  0
 18 15  2  0
 16 19  1  0
 16 20  2  0
 17 21  2  0
 21 18  1  0
  4 22  2  0
  4 23  1  0
 24 23  1  0
 24 25  1  0
 25 26  1  0
 25 27  1  0
 26 28  1  0
 27 29  1  0
 27 30  1  0
 30 28  1  0
 28 31  1  0
 30 32  1  0
 33 31  1  0
 34 31  1  0
 35 33  2  0
 33 36  1  0
 37 34  2  0
 38 35  1  0
 36 39  2  0
 36 37  1  0
 40 38  2  0
 40 39  1  0
 39 41  1  0
  6 42  1  6
  7 43  1  0
  7 44  1  0
  8 45  1  0
  8 46  1  0
 12 47  1  0
 12 48  1  0
 15 49  1  0
 17 50  1  0
 18 51  1  0
 21 52  1  0
 24 53  1  0
 24 54  1  0
 25 55  1  0
 27 56  1  0
 28 57  1  0
 29 58  1  0
 30 59  1  0
 32 60  1  0
 34 61  1  0
 38 62  1  0
 41 63  1  0
 41 64  1  0
M  CHG  3   5  -1  16   1  19  -1
M  END
>  <EmbedRMS>  (376) 
0.08994434404885408

$$$$

     RDKit          3D

 64 67  0  0  0  0  0  0  0  0999 V2000
   10.2811   43.7731   33.8041 C   0  0  0  0  0  0  0  0  0  0  0  0
   11.4018   43.5894   34.3652 O   0  0  0  0  0  0  0  0  0  0  0  0
    9.3637   42.7302   33.6998 O   0  0  0  0  0  0  0  0  0  0  0  0
    9.8879   41.2347   34.2839 P   0  0  0  0  0  5  0  0  0  0  0  0
   10.3695   41.4715   35.8737 O   0  0  0  0  0  1  0  0  0  0  0  0
    9.9666   45.1091   33.2209 C   0  0  2  0  0  0  0  0  0  0  0  0
   11.0679   46.0326   33.5007 N   0  0  0  0  0  0  0  0  0  0  0  0
    8.6465   45.6649   33.7992 C   0  0  0  0  0  0  0  0  0  0  0  0
    7.4482   45.0713   33.1210 C   0  0  0  0  0  0  0  0  0  0  0  0
    6.5323   44.3125   33.8596 O   0  0  0  0  0  0  0  0  0  0  0  0
    7.2576   45.2939   31.8940 O   0  0  0  0  0  0  0  0  0  0  0  0
    5.3634   43.7269   33.2873 C   0  0  0  0  0  0  0  0  0  0  0  0
    5.6971   42.3960   32.6556 C   0  0  0  0  0  0  0  0  0  0  0  0
    5.7645   41.1986   33.4123 C   0  0  0  0  0  0  0  0  0  0  0  0
    6.0484   42.3645   31.2936 C   0  0  0  0  0  0  0  0  0  0  0  0
    5.4227   41.1689   34.8054 N   0  0  0  0  0  4  0  0  0  0  0  0
    6.1739   40.0087   32.7862 C   0  0  0  0  0  0  0  0  0  0  0  0
    6.4571   41.1741   30.6897 C   0  0  0  0  0  0  0  0  0  0  0  0
    4.1589   41.5333   35.2073 O   0  0  0  0  0  1  0  0  0  0  0  0
    6.1573   40.5607   35.6106 O   0  0  0  0  0  0  0  0  0  0  0  0
    6.5212   39.9985   31.4351 C   0  0  0  0  0  0  0  0  0  0  0  0
    8.8185   40.1854   34.2129 O   0  0  0  0  0  0  0  0  0  0  0  0
   11.2385   40.7941   33.3646 O   0  0  0  0  0  0  0  0  0  0  0  0
   10.9116   40.6852   31.9929 C   0  0  0  0  0  0  0  0  0  0  0  0
   11.5151   39.3777   31.4396 C   0  0  0  0  0  0  0  0  0  0  0  0
   12.7459   39.0860   32.0743 O   0  0  0  0  0  0  0  0  0  0  0  0
   10.6035   38.1870   31.6670 C   0  0  0  0  0  0  0  0  0  0  0  0
   12.9338   37.6796   32.0283 C   0  0  0  0  0  0  0  0  0  0  0  0
    9.6371   38.0920   30.6485 O   0  0  0  0  0  0  0  0  0  0  0  0
   11.5753   37.0133   31.7059 C   0  0  0  0  0  0  0  0  0  0  0  0
   13.4907   37.2180   33.3232 N   0  0  0  0  0  0  0  0  0  0  0  0
   11.6227   36.3372   30.4688 O   0  0  0  0  0  0  0  0  0  0  0  0
   14.4764   36.3274   33.5726 C   0  0  0  0  0  0  0  0  0  0  0  0
   13.1179   37.6316   34.5685 C   0  0  0  0  0  0  0  0  0  0  0  0
   15.2064   35.6139   32.6738 N   0  0  0  0  0  0  0  0  0  0  0  0
   14.6735   36.2278   34.9180 C   0  0  0  0  0  0  0  0  0  0  0  0
   13.8225   37.0458   35.5780 N   0  0  0  0  0  0  0  0  0  0  0  0
   16.1636   34.7593   33.1547 C   0  0  0  0  0  0  0  0  0  0  0  0
   15.6516   35.3494   35.4130 C   0  0  0  0  0  0  0  0  0  0  0  0
   16.3791   34.6310   34.5042 N   0  0  0  0  0  0  0  0  0  0  0  0
   15.9001   35.1935   36.8089 N   0  0  0  0  0  0  0  0  0  0  0  0
    9.8764   44.9942   32.1164 H   0  0  0  0  0  0  0  0  0  0  0  0
   10.8423   46.9597   33.0717 H   0  0  0  0  0  0  0  0  0  0  0  0
   11.9196   45.6983   32.9920 H   0  0  0  0  0  0  0  0  0  0  0  0
    8.5946   45.4819   34.8953 H   0  0  0  0  0  0  0  0  0  0  0  0
    8.5984   46.7652   33.6498 H   0  0  0  0  0  0  0  0  0  0  0  0
    4.9097   44.4169   32.5418 H   0  0  0  0  0  0  0  0  0  0  0  0
    4.6018   43.6120   34.0798 H   0  0  0  0  0  0  0  0  0  0  0  0
    6.0133   43.2663   30.6958 H   0  0  0  0  0  0  0  0  0  0  0  0
    6.2234   39.0857   33.3503 H   0  0  0  0  0  0  0  0  0  0  0  0
    6.7283   41.1645   29.6419 H   0  0  0  0  0  0  0  0  0  0  0  0
    6.8382   39.0768   30.9649 H   0  0  0  0  0  0  0  0  0  0  0  0
   11.3806   41.5420   31.4637 H   0  0  0  0  0  0  0  0  0  0  0  0
    9.8204   40.7189   31.7593 H   0  0  0  0  0  0  0  0  0  0  0  0
   11.6972   39.5017   30.3470 H   0  0  0  0  0  0  0  0  0  0  0  0
   10.1076   38.2776   32.6626 H   0  0  0  0  0  0  0  0  0  0  0  0
   13.6663   37.4554   31.2211 H   0  0  0  0  0  0  0  0  0  0  0  0
    8.9758   37.4178   30.9539 H   0  0  0  0  0  0  0  0  0  0  0  0
   11.2853   36.3047   32.5181 H   0  0  0  0  0  0  0  0  0  0  0  0
   10.8673   35.6930   30.4657 H   0  0  0  0  0  0  0  0  0  0  0  0
   12.3348   38.3582   34.7441 H   0  0  0  0  0  0  0  0  0  0  0  0
   16.7568   34.1785   32.4620 H   0  0  0  0  0  0  0  0  0  0  0  0
   15.3529   35.7359   37.5137 H   0  0  0  0  0  0  0  0  0  0  0  0
   16.6360   34.5317   37.1414 H   0  0  0  0  0  0  0  0  0  0  0  0
  1  2  2  0
  1  3  1  0
  3  4  1  0
  4  5  1  0
  6  1  1  0
  7  6  1  0
  6  8  1  0
  8  9  1  0
  9 10  1  0
  9 11  2  0
 10 12  1  0
 12 13  1  0
 13 14  2  0
 15 13  1  0
 14 16  1  0
 14 17  1  0
 18 15  2  0
 16 19  1  0
 16 20  2  0
 17 21  2  0
 21 18  1  0
  4 22  2  0
  4 23  1  0
 24 23  1  0
 24 25  1  0
 25 26  1  0
 25 27  1  0
 26 28  1  0
 27 29  1  0
 27 30  1  0
 30 28  1  0
 28 31  1  0
 30 32  1  0
 33 31  1  0
 34 31  1  0
 35 33  2  0
 33 36  1  0
 37 34  2  0
 38 35  1  0
 36 39  2  0
 36 37  1  0
 40 38  2  0
 40 39  1  0
 39 41  1  0
  6 42  1  6
  7 43  1  0
  7 44  1  0
  8 45  1  0
  8 46  1  0
 12 47  1  0
 12 48  1  0
 15 49  1  0
 17 50  1  0
 18 51  1  0
 21 52  1  0
 24 53  1  0
 24 54  1  0
 25 55  1  0
 27 56  1  0
 28 57  1  0
 29 58  1  0
 30 59  1  0
 32 60  1  0
 34 61  1  0
 38 62  1  0
 41 63  1  0
 41 64  1  0
M  CHG  3   5  -1  16   1  19  -1
M  END
>  <EmbedRMS>  (377) 
0.087929735727791

$$$$

     RDKit          3D

 64 67  0  0  0  0  0  0  0  0999 V2000
   10.2858   43.7721   33.8048 C   0  0  0  0  0  0  0  0  0  0  0  0
   11.4084   43.5886   34.3611 O   0  0  0  0  0  0  0  0  0  0  0  0
    9.3672   42.7311   33.6996 O   0  0  0  0  0  0  0  0  0  0  0  0
    9.8853   41.2343   34.2839 P   0  0  0  0  0  5  0  0  0  0  0  0
   10.3662   41.4700   35.8743 O   0  0  0  0  0  1  0  0  0  0  0  0
    9.9530   45.1148   33.2532 C   0  0  2  0  0  0  0  0  0  0  0  0
   11.0714   46.0332   33.4765 N   0  0  0  0  0  0  0  0  0  0  0  0
    8.6599   45.6658   33.8882 C   0  0  0  0  0  0  0  0  0  0  0  0
    8.7912   45.8606   35.3696 C   0  0  0  0  0  0  0  0  0  0  0  0
    9.4214   47.0080   35.8579 O   0  0  0  0  0  0  0  0  0  0  0  0
    8.3662   44.9737   36.1596 O   0  0  0  0  0  0  0  0  0  0  0  0
    9.6219   47.2429   37.2471 C   0  0  0  0  0  0  0  0  0  0  0  0
   10.3385   48.5544   37.4330 C   0  0  0  0  0  0  0  0  0  0  0  0
    9.6496   49.7967   37.4775 C   0  0  0  0  0  0  0  0  0  0  0  0
   11.7395   48.5401   37.5567 C   0  0  0  0  0  0  0  0  0  0  0  0
    8.2240   49.8870   37.3012 N   0  0  0  0  0  4  0  0  0  0  0  0
   10.3814   50.9757   37.7060 C   0  0  0  0  0  0  0  0  0  0  0  0
   12.4479   49.7241   37.7646 C   0  0  0  0  0  0  0  0  0  0  0  0
    7.5197   50.8992   37.9119 O   0  0  0  0  0  1  0  0  0  0  0  0
    7.6394   49.1731   36.4608 O   0  0  0  0  0  0  0  0  0  0  0  0
   11.7695   50.9384   37.8471 C   0  0  0  0  0  0  0  0  0  0  0  0
    8.8077   40.1914   34.2086 O   0  0  0  0  0  0  0  0  0  0  0  0
   11.2368   40.7908   33.3672 O   0  0  0  0  0  0  0  0  0  0  0  0
   10.9136   40.6860   31.9946 C   0  0  0  0  0  0  0  0  0  0  0  0
   11.5170   39.3797   31.4409 C   0  0  0  0  0  0  0  0  0  0  0  0
   12.7488   39.0886   32.0762 O   0  0  0  0  0  0  0  0  0  0  0  0
   10.6051   38.1876   31.6659 C   0  0  0  0  0  0  0  0  0  0  0  0
   12.9412   37.6828   32.0278 C   0  0  0  0  0  0  0  0  0  0  0  0
    9.6358   38.0930   30.6503 O   0  0  0  0  0  0  0  0  0  0  0  0
   11.5827   37.0179   31.6936 C   0  0  0  0  0  0  0  0  0  0  0  0
   13.4909   37.2176   33.3239 N   0  0  0  0  0  0  0  0  0  0  0  0
   11.6141   36.3180   30.4675 O   0  0  0  0  0  0  0  0  0  0  0  0
   14.4762   36.3270   33.5733 C   0  0  0  0  0  0  0  0  0  0  0  0
   13.1179   37.6316   34.5689 C   0  0  0  0  0  0  0  0  0  0  0  0
   15.2067   35.6140   32.6743 N   0  0  0  0  0  0  0  0  0  0  0  0
   14.6731   36.2272   34.9186 C   0  0  0  0  0  0  0  0  0  0  0  0
   13.8223   37.0456   35.5785 N   0  0  0  0  0  0  0  0  0  0  0  0
   16.1639   34.7595   33.1550 C   0  0  0  0  0  0  0  0  0  0  0  0
   15.6515   35.3491   35.4134 C   0  0  0  0  0  0  0  0  0  0  0  0
   16.3793   34.6310   34.5045 N   0  0  0  0  0  0  0  0  0  0  0  0
   15.9003   35.1933   36.8092 N   0  0  0  0  0  0  0  0  0  0  0  0
    9.7837   45.0052   32.1583 H   0  0  0  0  0  0  0  0  0  0  0  0
   11.8827   45.7128   32.8980 H   0  0  0  0  0  0  0  0  0  0  0  0
   10.8102   46.9720   33.0958 H   0  0  0  0  0  0  0  0  0  0  0  0
    8.4063   46.6415   33.4205 H   0  0  0  0  0  0  0  0  0  0  0  0
    7.8131   44.9769   33.6751 H   0  0  0  0  0  0  0  0  0  0  0  0
   10.2205   46.4105   37.6789 H   0  0  0  0  0  0  0  0  0  0  0  0
    8.6478   47.2519   37.7815 H   0  0  0  0  0  0  0  0  0  0  0  0
   12.2861   47.6064   37.5026 H   0  0  0  0  0  0  0  0  0  0  0  0
    9.8775   51.9327   37.7528 H   0  0  0  0  0  0  0  0  0  0  0  0
   13.5252   49.6990   37.8661 H   0  0  0  0  0  0  0  0  0  0  0  0
   12.3210   51.8551   38.0119 H   0  0  0  0  0  0  0  0  0  0  0  0
    9.8235   40.7211   31.7580 H   0  0  0  0  0  0  0  0  0  0  0  0
   11.3856   41.5434   31.4688 H   0  0  0  0  0  0  0  0  0  0  0  0
   11.6994   39.5065   30.3488 H   0  0  0  0  0  0  0  0  0  0  0  0
   10.1120   38.2722   32.6632 H   0  0  0  0  0  0  0  0  0  0  0  0
   13.6816   37.4632   31.2269 H   0  0  0  0  0  0  0  0  0  0  0  0
    9.0037   37.3828   30.9349 H   0  0  0  0  0  0  0  0  0  0  0  0
   11.2846   36.3040   32.4928 H   0  0  0  0  0  0  0  0  0  0  0  0
   11.8850   36.9590   29.7589 H   0  0  0  0  0  0  0  0  0  0  0  0
   12.3363   38.3599   34.7441 H   0  0  0  0  0  0  0  0  0  0  0  0
   16.7574   34.1790   32.4623 H   0  0  0  0  0  0  0  0  0  0  0  0
   15.3530   35.7355   37.5141 H   0  0  0  0  0  0  0  0  0  0  0  0
   16.6363   34.5316   37.1417 H   0  0  0  0  0  0  0  0  0  0  0  0
  1  2  2  0
  1  3  1  0
  3  4  1  0
  4  5  1  0
  6  1  1  0
  7  6  1  0
  6  8  1  0
  8  9  1  0
  9 10  1  0
  9 11  2  0
 10 12  1  0
 12 13  1  0
 13 14  2  0
 15 13  1  0
 14 16  1  0
 14 17  1  0
 18 15  2  0
 16 19  1  0
 16 20  2  0
 17 21  2  0
 21 18  1  0
  4 22  2  0
  4 23  1  0
 24 23  1  0
 24 25  1  0
 25 26  1  0
 25 27  1  0
 26 28  1  0
 27 29  1  0
 27 30  1  0
 30 28  1  0
 28 31  1  0
 30 32  1  0
 33 31  1  0
 34 31  1  0
 35 33  2  0
 33 36  1  0
 37 34  2  0
 38 35  1  0
 36 39  2  0
 36 37  1  0
 40 38  2  0
 40 39  1  0
 39 41  1  0
  6 42  1  6
  7 43  1  0
  7 44  1  0
  8 45  1  0
  8 46  1  0
 12 47  1  0
 12 48  1  0
 15 49  1  0
 17 50  1  0
 18 51  1  0
 21 52  1  0
 24 53  1  0
 24 54  1  0
 25 55  1  0
 27 56  1  0
 28 57  1  0
 29 58  1  0
 30 59  1  0
 32 60  1  0
 34 61  1  0
 38 62  1  0
 41 63  1  0
 41 64  1  0
M  CHG  3   5  -1  16   1  19  -1
M  END
>  <EmbedRMS>  (378) 
0.08786049023479164

$$$$

     RDKit          3D

 64 67  0  0  0  0  0  0  0  0999 V2000
   10.2856   43.7717   33.8031 C   0  0  0  0  0  0  0  0  0  0  0  0
   11.4073   43.5882   34.3611 O   0  0  0  0  0  0  0  0  0  0  0  0
    9.3664   42.7310   33.6997 O   0  0  0  0  0  0  0  0  0  0  0  0
    9.8852   41.2344   34.2848 P   0  0  0  0  0  5  0  0  0  0  0  0
   10.3680   41.4701   35.8746 O   0  0  0  0  0  1  0  0  0  0  0  0
    9.9562   45.1140   33.2459 C   0  0  2  0  0  0  0  0  0  0  0  0
   11.0694   46.0348   33.4837 N   0  0  0  0  0  0  0  0  0  0  0  0
    8.6520   45.6665   33.8576 C   0  0  0  0  0  0  0  0  0  0  0  0
    8.7208   45.7692   35.3521 C   0  0  0  0  0  0  0  0  0  0  0  0
    8.1953   44.7353   36.1313 O   0  0  0  0  0  0  0  0  0  0  0  0
    9.2836   46.7612   35.8908 O   0  0  0  0  0  0  0  0  0  0  0  0
    8.3339   44.6879   37.5487 C   0  0  0  0  0  0  0  0  0  0  0  0
    7.6573   43.4645   38.1276 C   0  0  0  0  0  0  0  0  0  0  0  0
    7.2853   43.4093   39.4977 C   0  0  0  0  0  0  0  0  0  0  0  0
    7.4055   42.3457   37.3069 C   0  0  0  0  0  0  0  0  0  0  0  0
    7.5785   44.4875   40.4050 N   0  0  0  0  0  4  0  0  0  0  0  0
    6.6176   42.2701   39.9837 C   0  0  0  0  0  0  0  0  0  0  0  0
    6.7592   41.2184   37.8146 C   0  0  0  0  0  0  0  0  0  0  0  0
    8.7879   45.1408   40.3471 O   0  0  0  0  0  1  0  0  0  0  0  0
    6.8145   44.7241   41.3637 O   0  0  0  0  0  0  0  0  0  0  0  0
    6.3579   41.1841   39.1477 C   0  0  0  0  0  0  0  0  0  0  0  0
    8.8076   40.1914   34.2104 O   0  0  0  0  0  0  0  0  0  0  0  0
   11.2366   40.7902   33.3688 O   0  0  0  0  0  0  0  0  0  0  0  0
   10.9150   40.6896   31.9959 C   0  0  0  0  0  0  0  0  0  0  0  0
   11.5268   39.3898   31.4374 C   0  0  0  0  0  0  0  0  0  0  0  0
   12.7506   39.0917   32.0839 O   0  0  0  0  0  0  0  0  0  0  0  0
   10.6121   38.1915   31.6452 C   0  0  0  0  0  0  0  0  0  0  0  0
   12.9428   37.6853   32.0295 C   0  0  0  0  0  0  0  0  0  0  0  0
    9.6069   38.0857   30.6603 O   0  0  0  0  0  0  0  0  0  0  0  0
   11.5845   37.0186   31.6880 C   0  0  0  0  0  0  0  0  0  0  0  0
   13.4898   37.2164   33.3250 N   0  0  0  0  0  0  0  0  0  0  0  0
   11.6201   36.3062   30.4693 O   0  0  0  0  0  0  0  0  0  0  0  0
   14.4758   36.3264   33.5739 C   0  0  0  0  0  0  0  0  0  0  0  0
   13.1175   37.6308   34.5699 C   0  0  0  0  0  0  0  0  0  0  0  0
   15.2065   35.6139   32.6746 N   0  0  0  0  0  0  0  0  0  0  0  0
   14.6731   36.2268   34.9191 C   0  0  0  0  0  0  0  0  0  0  0  0
   13.8224   37.0450   35.5792 N   0  0  0  0  0  0  0  0  0  0  0  0
   16.1640   34.7596   33.1551 C   0  0  0  0  0  0  0  0  0  0  0  0
   15.6517   35.3489   35.4136 C   0  0  0  0  0  0  0  0  0  0  0  0
   16.3795   34.6310   34.5046 N   0  0  0  0  0  0  0  0  0  0  0  0
   15.9006   35.1931   36.8094 N   0  0  0  0  0  0  0  0  0  0  0  0
    9.8046   45.0033   32.1486 H   0  0  0  0  0  0  0  0  0  0  0  0
   11.8906   45.7134   32.9197 H   0  0  0  0  0  0  0  0  0  0  0  0
   10.8139   46.9715   33.0941 H   0  0  0  0  0  0  0  0  0  0  0  0
    8.4328   46.6689   33.4302 H   0  0  0  0  0  0  0  0  0  0  0  0
    7.8034   45.0046   33.5784 H   0  0  0  0  0  0  0  0  0  0  0  0
    9.4138   44.6584   37.8087 H   0  0  0  0  0  0  0  0  0  0  0  0
    7.8753   45.6059   37.9760 H   0  0  0  0  0  0  0  0  0  0  0  0
    7.6967   42.3420   36.2653 H   0  0  0  0  0  0  0  0  0  0  0  0
    6.3181   42.2127   41.0227 H   0  0  0  0  0  0  0  0  0  0  0  0
    6.5658   40.3704   37.1701 H   0  0  0  0  0  0  0  0  0  0  0  0
    5.8536   40.3095   39.5378 H   0  0  0  0  0  0  0  0  0  0  0  0
   11.3817   41.5526   31.4745 H   0  0  0  0  0  0  0  0  0  0  0  0
    9.8248   40.7186   31.7590 H   0  0  0  0  0  0  0  0  0  0  0  0
   11.7316   39.5338   30.3520 H   0  0  0  0  0  0  0  0  0  0  0  0
   10.1213   38.2681   32.6413 H   0  0  0  0  0  0  0  0  0  0  0  0
   13.6881   37.4709   31.2319 H   0  0  0  0  0  0  0  0  0  0  0  0
   10.0256   38.1750   29.7656 H   0  0  0  0  0  0  0  0  0  0  0  0
   11.2795   36.3123   32.4916 H   0  0  0  0  0  0  0  0  0  0  0  0
   11.9872   36.9099   29.7715 H   0  0  0  0  0  0  0  0  0  0  0  0
   12.3365   38.3596   34.7454 H   0  0  0  0  0  0  0  0  0  0  0  0
   16.7576   34.1795   32.4622 H   0  0  0  0  0  0  0  0  0  0  0  0
   16.6368   34.5316   37.1418 H   0  0  0  0  0  0  0  0  0  0  0  0
   15.3532   35.7351   37.5143 H   0  0  0  0  0  0  0  0  0  0  0  0
  1  2  2  0
  1  3  1  0
  3  4  1  0
  4  5  1  0
  6  1  1  0
  7  6  1  0
  6  8  1  0
  8  9  1  0
  9 10  1  0
  9 11  2  0
 10 12  1  0
 12 13  1  0
 13 14  2  0
 15 13  1  0
 14 16  1  0
 14 17  1  0
 18 15  2  0
 16 19  1  0
 16 20  2  0
 17 21  2  0
 21 18  1  0
  4 22  2  0
  4 23  1  0
 24 23  1  0
 24 25  1  0
 25 26  1  0
 25 27  1  0
 26 28  1  0
 27 29  1  0
 27 30  1  0
 30 28  1  0
 28 31  1  0
 30 32  1  0
 33 31  1  0
 34 31  1  0
 35 33  2  0
 33 36  1  0
 37 34  2  0
 38 35  1  0
 36 39  2  0
 36 37  1  0
 40 38  2  0
 40 39  1  0
 39 41  1  0
  6 42  1  6
  7 43  1  0
  7 44  1  0
  8 45  1  0
  8 46  1  0
 12 47  1  0
 12 48  1  0
 15 49  1  0
 17 50  1  0
 18 51  1  0
 21 52  1  0
 24 53  1  0
 24 54  1  0
 25 55  1  0
 27 56  1  0
 28 57  1  0
 29 58  1  0
 30 59  1  0
 32 60  1  0
 34 61  1  0
 38 62  1  0
 41 63  1  0
 41 64  1  0
M  CHG  3   5  -1  16   1  19  -1
M  END
>  <EmbedRMS>  (379) 
0.08685437081376839

$$$$

     RDKit          3D

 64 67  0  0  0  0  0  0  0  0999 V2000
   10.2875   43.7688   33.8087 C   0  0  0  0  0  0  0  0  0  0  0  0
   11.4115   43.5793   34.3595 O   0  0  0  0  0  0  0  0  0  0  0  0
    9.3665   42.7305   33.7019 O   0  0  0  0  0  0  0  0  0  0  0  0
    9.8843   41.2326   34.2836 P   0  0  0  0  0  5  0  0  0  0  0  0
   10.3658   41.4676   35.8740 O   0  0  0  0  0  1  0  0  0  0  0  0
    9.9640   45.1115   33.2466 C   0  0  2  0  0  0  0  0  0  0  0  0
   11.0620   46.0542   33.4767 N   0  0  0  0  0  0  0  0  0  0  0  0
    8.6420   45.6681   33.8093 C   0  0  0  0  0  0  0  0  0  0  0  0
    8.6633   45.8203   35.3014 C   0  0  0  0  0  0  0  0  0  0  0  0
    9.1453   47.0048   35.8643 O   0  0  0  0  0  0  0  0  0  0  0  0
    8.2765   44.8698   36.0351 O   0  0  0  0  0  0  0  0  0  0  0  0
    9.2248   47.2119   37.2709 C   0  0  0  0  0  0  0  0  0  0  0  0
    9.7670   48.5908   37.5534 C   0  0  0  0  0  0  0  0  0  0  0  0
    9.1786   49.7623   37.0036 C   0  0  0  0  0  0  0  0  0  0  0  0
   10.9136   48.7128   38.3605 C   0  0  0  0  0  0  0  0  0  0  0  0
    7.9953   49.7073   36.1853 N   0  0  0  0  0  4  0  0  0  0  0  0
    9.7777   51.0109   37.2539 C   0  0  0  0  0  0  0  0  0  0  0  0
   11.4817   49.9629   38.6081 C   0  0  0  0  0  0  0  0  0  0  0  0
    6.9619   48.8557   36.4994 O   0  0  0  0  0  1  0  0  0  0  0  0
    7.8250   50.5448   35.2752 O   0  0  0  0  0  0  0  0  0  0  0  0
   10.9178   51.1090   38.0521 C   0  0  0  0  0  0  0  0  0  0  0  0
    8.8064   40.1902   34.2081 O   0  0  0  0  0  0  0  0  0  0  0  0
   11.2360   40.7899   33.3662 O   0  0  0  0  0  0  0  0  0  0  0  0
   10.9131   40.6842   31.9933 C   0  0  0  0  0  0  0  0  0  0  0  0
   11.5173   39.3773   31.4395 C   0  0  0  0  0  0  0  0  0  0  0  0
   12.7476   39.0869   32.0757 O   0  0  0  0  0  0  0  0  0  0  0  0
   10.6068   38.1850   31.6657 C   0  0  0  0  0  0  0  0  0  0  0  0
   12.9372   37.6811   32.0290 C   0  0  0  0  0  0  0  0  0  0  0  0
    9.6404   38.0882   30.6475 O   0  0  0  0  0  0  0  0  0  0  0  0
   11.5789   37.0134   31.7045 C   0  0  0  0  0  0  0  0  0  0  0  0
   13.4915   37.2182   33.3239 N   0  0  0  0  0  0  0  0  0  0  0  0
   11.6125   36.3389   30.4673 O   0  0  0  0  0  0  0  0  0  0  0  0
   14.4766   36.3272   33.5730 C   0  0  0  0  0  0  0  0  0  0  0  0
   13.1184   37.6317   34.5690 C   0  0  0  0  0  0  0  0  0  0  0  0
   15.2066   35.6139   32.6740 N   0  0  0  0  0  0  0  0  0  0  0  0
   14.6735   36.2274   34.9184 C   0  0  0  0  0  0  0  0  0  0  0  0
   13.8227   37.0456   35.5785 N   0  0  0  0  0  0  0  0  0  0  0  0
   16.1637   34.7593   33.1548 C   0  0  0  0  0  0  0  0  0  0  0  0
   15.6517   35.3491   35.4132 C   0  0  0  0  0  0  0  0  0  0  0  0
   16.3792   34.6308   34.5043 N   0  0  0  0  0  0  0  0  0  0  0  0
   15.9004   35.1932   36.8090 N   0  0  0  0  0  0  0  0  0  0  0  0
    9.8342   44.9915   32.1485 H   0  0  0  0  0  0  0  0  0  0  0  0
   11.3040   46.0961   34.4939 H   0  0  0  0  0  0  0  0  0  0  0  0
   11.9093   45.7282   32.9561 H   0  0  0  0  0  0  0  0  0  0  0  0
    7.8022   44.9990   33.5194 H   0  0  0  0  0  0  0  0  0  0  0  0
    8.4401   46.6600   33.3501 H   0  0  0  0  0  0  0  0  0  0  0  0
    8.2227   47.1013   37.7359 H   0  0  0  0  0  0  0  0  0  0  0  0
    9.8810   46.4285   37.7103 H   0  0  0  0  0  0  0  0  0  0  0  0
   11.3788   47.8361   38.7943 H   0  0  0  0  0  0  0  0  0  0  0  0
    9.3495   51.9159   36.8416 H   0  0  0  0  0  0  0  0  0  0  0  0
   12.3655   50.0421   39.2281 H   0  0  0  0  0  0  0  0  0  0  0  0
   11.3630   52.0771   38.2426 H   0  0  0  0  0  0  0  0  0  0  0  0
    9.8230   40.7187   31.7570 H   0  0  0  0  0  0  0  0  0  0  0  0
   11.3848   41.5415   31.4671 H   0  0  0  0  0  0  0  0  0  0  0  0
   11.7005   39.5019   30.3472 H   0  0  0  0  0  0  0  0  0  0  0  0
   10.1097   38.2750   32.6606 H   0  0  0  0  0  0  0  0  0  0  0  0
   13.6713   37.4593   31.2227 H   0  0  0  0  0  0  0  0  0  0  0  0
    9.0033   37.3834   30.9350 H   0  0  0  0  0  0  0  0  0  0  0  0
   11.2706   36.3048   32.5088 H   0  0  0  0  0  0  0  0  0  0  0  0
   12.1444   35.5136   30.6141 H   0  0  0  0  0  0  0  0  0  0  0  0
   12.3362   38.3592   34.7445 H   0  0  0  0  0  0  0  0  0  0  0  0
   16.7571   34.1787   32.4620 H   0  0  0  0  0  0  0  0  0  0  0  0
   16.6362   34.5314   37.1415 H   0  0  0  0  0  0  0  0  0  0  0  0
   15.3532   35.7355   37.5139 H   0  0  0  0  0  0  0  0  0  0  0  0
  1  2  2  0
  1  3  1  0
  3  4  1  0
  4  5  1  0
  6  1  1  0
  7  6  1  0
  6  8  1  0
  8  9  1  0
  9 10  1  0
  9 11  2  0
 10 12  1  0
 12 13  1  0
 13 14  2  0
 15 13  1  0
 14 16  1  0
 14 17  1  0
 18 15  2  0
 16 19  1  0
 16 20  2  0
 17 21  2  0
 21 18  1  0
  4 22  2  0
  4 23  1  0
 24 23  1  0
 24 25  1  0
 25 26  1  0
 25 27  1  0
 26 28  1  0
 27 29  1  0
 27 30  1  0
 30 28  1  0
 28 31  1  0
 30 32  1  0
 33 31  1  0
 34 31  1  0
 35 33  2  0
 33 36  1  0
 37 34  2  0
 38 35  1  0
 36 39  2  0
 36 37  1  0
 40 38  2  0
 40 39  1  0
 39 41  1  0
  6 42  1  6
  7 43  1  0
  7 44  1  0
  8 45  1  0
  8 46  1  0
 12 47  1  0
 12 48  1  0
 15 49  1  0
 17 50  1  0
 18 51  1  0
 21 52  1  0
 24 53  1  0
 24 54  1  0
 25 55  1  0
 27 56  1  0
 28 57  1  0
 29 58  1  0
 30 59  1  0
 32 60  1  0
 34 61  1  0
 38 62  1  0
 41 63  1  0
 41 64  1  0
M  CHG  3   5  -1  16   1  19  -1
M  END
>  <EmbedRMS>  (380) 
0.08946605323818928

$$$$

     RDKit          3D

 64 67  0  0  0  0  0  0  0  0999 V2000
   10.2861   43.7711   33.8100 C   0  0  0  0  0  0  0  0  0  0  0  0
   11.4100   43.5819   34.3617 O   0  0  0  0  0  0  0  0  0  0  0  0
    9.3672   42.7306   33.7015 O   0  0  0  0  0  0  0  0  0  0  0  0
    9.8851   41.2327   34.2837 P   0  0  0  0  0  5  0  0  0  0  0  0
   10.3652   41.4675   35.8745 O   0  0  0  0  0  1  0  0  0  0  0  0
    9.9604   45.1126   33.2473 C   0  0  2  0  0  0  0  0  0  0  0  0
   11.0659   46.0473   33.4747 N   0  0  0  0  0  0  0  0  0  0  0  0
    8.6649   45.6583   33.8719 C   0  0  0  0  0  0  0  0  0  0  0  0
    8.2528   46.9436   33.2233 C   0  0  0  0  0  0  0  0  0  0  0  0
    8.7949   48.1503   33.6825 O   0  0  0  0  0  0  0  0  0  0  0  0
    7.4591   46.9235   32.2431 O   0  0  0  0  0  0  0  0  0  0  0  0
    8.4684   49.4266   33.1295 C   0  0  0  0  0  0  0  0  0  0  0  0
    9.4449   49.8646   32.0543 C   0  0  0  0  0  0  0  0  0  0  0  0
    9.6043   51.2406   31.7337 C   0  0  0  0  0  0  0  0  0  0  0  0
   10.2050   48.9105   31.3462 C   0  0  0  0  0  0  0  0  0  0  0  0
    8.8069   52.2606   32.3622 N   0  0  0  0  0  4  0  0  0  0  0  0
   10.5617   51.6192   30.7749 C   0  0  0  0  0  0  0  0  0  0  0  0
   11.1367   49.3076   30.3864 C   0  0  0  0  0  0  0  0  0  0  0  0
    7.4610   52.0654   32.5701 O   0  0  0  0  0  1  0  0  0  0  0  0
    9.2859   53.3965   32.5598 O   0  0  0  0  0  0  0  0  0  0  0  0
   11.3217   50.6591   30.1082 C   0  0  0  0  0  0  0  0  0  0  0  0
    8.8075   40.1901   34.2071 O   0  0  0  0  0  0  0  0  0  0  0  0
   11.2382   40.7897   33.3686 O   0  0  0  0  0  0  0  0  0  0  0  0
   10.9194   40.6894   31.9947 C   0  0  0  0  0  0  0  0  0  0  0  0
   11.5171   39.3801   31.4396 C   0  0  0  0  0  0  0  0  0  0  0  0
   12.7479   39.0861   32.0733 O   0  0  0  0  0  0  0  0  0  0  0  0
   10.6031   38.1891   31.6666 C   0  0  0  0  0  0  0  0  0  0  0  0
   12.9335   37.6796   32.0279 C   0  0  0  0  0  0  0  0  0  0  0  0
    9.6397   38.0777   30.6456 O   0  0  0  0  0  0  0  0  0  0  0  0
   11.5739   37.0154   31.7057 C   0  0  0  0  0  0  0  0  0  0  0  0
   13.4903   37.2178   33.3231 N   0  0  0  0  0  0  0  0  0  0  0  0
   11.6211   36.3376   30.4695 O   0  0  0  0  0  0  0  0  0  0  0  0
   14.4761   36.3273   33.5725 C   0  0  0  0  0  0  0  0  0  0  0  0
   13.1179   37.6316   34.5684 C   0  0  0  0  0  0  0  0  0  0  0  0
   15.2063   35.6139   32.6737 N   0  0  0  0  0  0  0  0  0  0  0  0
   14.6733   36.2277   34.9179 C   0  0  0  0  0  0  0  0  0  0  0  0
   13.8225   37.0459   35.5779 N   0  0  0  0  0  0  0  0  0  0  0  0
   16.1636   34.7594   33.1546 C   0  0  0  0  0  0  0  0  0  0  0  0
   15.6515   35.3494   35.4129 C   0  0  0  0  0  0  0  0  0  0  0  0
   16.3791   34.6311   34.5041 N   0  0  0  0  0  0  0  0  0  0  0  0
   15.9001   35.1935   36.8088 N   0  0  0  0  0  0  0  0  0  0  0  0
    9.8093   44.9950   32.1511 H   0  0  0  0  0  0  0  0  0  0  0  0
   11.2783   46.1164   34.4975 H   0  0  0  0  0  0  0  0  0  0  0  0
   11.9209   45.7035   32.9788 H   0  0  0  0  0  0  0  0  0  0  0  0
    8.8084   45.8281   34.9614 H   0  0  0  0  0  0  0  0  0  0  0  0
    7.8433   44.9182   33.7510 H   0  0  0  0  0  0  0  0  0  0  0  0
    8.5047   50.1557   33.9658 H   0  0  0  0  0  0  0  0  0  0  0  0
    7.4331   49.4267   32.7253 H   0  0  0  0  0  0  0  0  0  0  0  0
   10.0946   47.8532   31.5331 H   0  0  0  0  0  0  0  0  0  0  0  0
   10.7034   52.6632   30.5254 H   0  0  0  0  0  0  0  0  0  0  0  0
   11.7197   48.5635   29.8590 H   0  0  0  0  0  0  0  0  0  0  0  0
   12.0475   50.9636   29.3651 H   0  0  0  0  0  0  0  0  0  0  0  0
    9.8317   40.7398   31.7544 H   0  0  0  0  0  0  0  0  0  0  0  0
   11.4014   41.5437   31.4731 H   0  0  0  0  0  0  0  0  0  0  0  0
   11.6983   39.5042   30.3469 H   0  0  0  0  0  0  0  0  0  0  0  0
   10.1090   38.2631   32.6649 H   0  0  0  0  0  0  0  0  0  0  0  0
   13.6656   37.4540   31.2207 H   0  0  0  0  0  0  0  0  0  0  0  0
    8.8965   38.6900   30.8851 H   0  0  0  0  0  0  0  0  0  0  0  0
   11.2846   36.3060   32.5175 H   0  0  0  0  0  0  0  0  0  0  0  0
   10.8523   35.7094   30.4590 H   0  0  0  0  0  0  0  0  0  0  0  0
   12.3353   38.3588   34.7439 H   0  0  0  0  0  0  0  0  0  0  0  0
   16.7570   34.1788   32.4619 H   0  0  0  0  0  0  0  0  0  0  0  0
   16.6360   34.5317   37.1413 H   0  0  0  0  0  0  0  0  0  0  0  0
   15.3529   35.7359   37.5136 H   0  0  0  0  0  0  0  0  0  0  0  0
  1  2  2  0
  1  3  1  0
  3  4  1  0
  4  5  1  0
  6  1  1  0
  7  6  1  0
  6  8  1  0
  8  9  1  0
  9 10  1  0
  9 11  2  0
 10 12  1  0
 12 13  1  0
 13 14  2  0
 15 13  1  0
 14 16  1  0
 14 17  1  0
 18 15  2  0
 16 19  1  0
 16 20  2  0
 17 21  2  0
 21 18  1  0
  4 22  2  0
  4 23  1  0
 24 23  1  0
 24 25  1  0
 25 26  1  0
 25 27  1  0
 26 28  1  0
 27 29  1  0
 27 30  1  0
 30 28  1  0
 28 31  1  0
 30 32  1  0
 33 31  1  0
 34 31  1  0
 35 33  2  0
 33 36  1  0
 37 34  2  0
 38 35  1  0
 36 39  2  0
 36 37  1  0
 40 38  2  0
 40 39  1  0
 39 41  1  0
  6 42  1  6
  7 43  1  0
  7 44  1  0
  8 45  1  0
  8 46  1  0
 12 47  1  0
 12 48  1  0
 15 49  1  0
 17 50  1  0
 18 51  1  0
 21 52  1  0
 24 53  1  0
 24 54  1  0
 25 55  1  0
 27 56  1  0
 28 57  1  0
 29 58  1  0
 30 59  1  0
 32 60  1  0
 34 61  1  0
 38 62  1  0
 41 63  1  0
 41 64  1  0
M  CHG  3   5  -1  16   1  19  -1
M  END
>  <EmbedRMS>  (381) 
0.08994494510423351

$$$$

     RDKit          3D

 64 67  0  0  0  0  0  0  0  0999 V2000
   10.2849   43.7725   33.8069 C   0  0  0  0  0  0  0  0  0  0  0  0
   11.4105   43.5874   34.3564 O   0  0  0  0  0  0  0  0  0  0  0  0
    9.3666   42.7311   33.7013 O   0  0  0  0  0  0  0  0  0  0  0  0
    9.8856   41.2339   34.2841 P   0  0  0  0  0  5  0  0  0  0  0  0
   10.3657   41.4694   35.8747 O   0  0  0  0  0  1  0  0  0  0  0  0
    9.9583   45.1106   33.2438 C   0  0  2  0  0  0  0  0  0  0  0  0
   11.0676   46.0367   33.4846 N   0  0  0  0  0  0  0  0  0  0  0  0
    8.6194   45.6575   33.7892 C   0  0  0  0  0  0  0  0  0  0  0  0
    8.6100   45.8044   35.2821 C   0  0  0  0  0  0  0  0  0  0  0  0
    9.0105   47.0138   35.8560 O   0  0  0  0  0  0  0  0  0  0  0  0
    8.2699   44.8296   36.0069 O   0  0  0  0  0  0  0  0  0  0  0  0
    9.0719   47.2134   37.2636 C   0  0  0  0  0  0  0  0  0  0  0  0
    9.5599   48.6090   37.5484 C   0  0  0  0  0  0  0  0  0  0  0  0
    8.6786   49.7199   37.6212 C   0  0  0  0  0  0  0  0  0  0  0  0
   10.9386   48.8103   37.7396 C   0  0  0  0  0  0  0  0  0  0  0  0
    7.2672   49.5858   37.3743 N   0  0  0  0  0  4  0  0  0  0  0  0
    9.2004   50.9865   37.9433 C   0  0  0  0  0  0  0  0  0  0  0  0
   11.4377   50.0781   38.0409 C   0  0  0  0  0  0  0  0  0  0  0  0
    6.8087   48.7877   36.3520 O   0  0  0  0  0  1  0  0  0  0  0  0
    6.4554   50.3268   37.9665 O   0  0  0  0  0  0  0  0  0  0  0  0
   10.5694   51.1625   38.1504 C   0  0  0  0  0  0  0  0  0  0  0  0
    8.8083   40.1910   34.2080 O   0  0  0  0  0  0  0  0  0  0  0  0
   11.2384   40.7904   33.3687 O   0  0  0  0  0  0  0  0  0  0  0  0
   10.9193   40.6895   31.9949 C   0  0  0  0  0  0  0  0  0  0  0  0
   11.5170   39.3801   31.4398 C   0  0  0  0  0  0  0  0  0  0  0  0
   12.7478   39.0862   32.0734 O   0  0  0  0  0  0  0  0  0  0  0  0
   10.6031   38.1891   31.6667 C   0  0  0  0  0  0  0  0  0  0  0  0
   12.9335   37.6797   32.0280 C   0  0  0  0  0  0  0  0  0  0  0  0
    9.6397   38.0777   30.6456 O   0  0  0  0  0  0  0  0  0  0  0  0
   11.5739   37.0154   31.7057 C   0  0  0  0  0  0  0  0  0  0  0  0
   13.4903   37.2178   33.3231 N   0  0  0  0  0  0  0  0  0  0  0  0
   11.6211   36.3376   30.4695 O   0  0  0  0  0  0  0  0  0  0  0  0
   14.4761   36.3273   33.5725 C   0  0  0  0  0  0  0  0  0  0  0  0
   13.1179   37.6316   34.5684 C   0  0  0  0  0  0  0  0  0  0  0  0
   15.2063   35.6139   32.6737 N   0  0  0  0  0  0  0  0  0  0  0  0
   14.6733   36.2277   34.9180 C   0  0  0  0  0  0  0  0  0  0  0  0
   13.8225   37.0459   35.5779 N   0  0  0  0  0  0  0  0  0  0  0  0
   16.1636   34.7594   33.1546 C   0  0  0  0  0  0  0  0  0  0  0  0
   15.6515   35.3494   35.4129 C   0  0  0  0  0  0  0  0  0  0  0  0
   16.3791   34.6311   34.5041 N   0  0  0  0  0  0  0  0  0  0  0  0
   15.9001   35.1935   36.8088 N   0  0  0  0  0  0  0  0  0  0  0  0
    9.8489   44.9836   32.1444 H   0  0  0  0  0  0  0  0  0  0  0  0
   10.8510   46.9479   33.0189 H   0  0  0  0  0  0  0  0  0  0  0  0
   11.1653   46.2253   34.5088 H   0  0  0  0  0  0  0  0  0  0  0  0
    7.7911   44.9812   33.4840 H   0  0  0  0  0  0  0  0  0  0  0  0
    8.4120   46.6473   33.3283 H   0  0  0  0  0  0  0  0  0  0  0  0
    8.0731   47.0469   37.7209 H   0  0  0  0  0  0  0  0  0  0  0  0
    9.7625   46.4655   37.7122 H   0  0  0  0  0  0  0  0  0  0  0  0
   11.6300   47.9796   37.6657 H   0  0  0  0  0  0  0  0  0  0  0  0
    8.5464   51.8466   38.0124 H   0  0  0  0  0  0  0  0  0  0  0  0
   12.5000   50.2188   38.1938 H   0  0  0  0  0  0  0  0  0  0  0  0
   10.9586   52.1444   38.3875 H   0  0  0  0  0  0  0  0  0  0  0  0
    9.8314   40.7396   31.7550 H   0  0  0  0  0  0  0  0  0  0  0  0
   11.4008   41.5437   31.4729 H   0  0  0  0  0  0  0  0  0  0  0  0
   11.6982   39.5043   30.3471 H   0  0  0  0  0  0  0  0  0  0  0  0
   10.1089   38.2631   32.6650 H   0  0  0  0  0  0  0  0  0  0  0  0
   13.6656   37.4541   31.2207 H   0  0  0  0  0  0  0  0  0  0  0  0
    8.8965   38.6899   30.8852 H   0  0  0  0  0  0  0  0  0  0  0  0
   11.2846   36.3060   32.5175 H   0  0  0  0  0  0  0  0  0  0  0  0
   10.8524   35.7094   30.4590 H   0  0  0  0  0  0  0  0  0  0  0  0
   12.3353   38.3588   34.7440 H   0  0  0  0  0  0  0  0  0  0  0  0
   16.7570   34.1788   32.4619 H   0  0  0  0  0  0  0  0  0  0  0  0
   16.6360   34.5317   37.1413 H   0  0  0  0  0  0  0  0  0  0  0  0
   15.3529   35.7359   37.5136 H   0  0  0  0  0  0  0  0  0  0  0  0
  1  2  2  0
  1  3  1  0
  3  4  1  0
  4  5  1  0
  6  1  1  0
  7  6  1  0
  6  8  1  0
  8  9  1  0
  9 10  1  0
  9 11  2  0
 10 12  1  0
 12 13  1  0
 13 14  2  0
 15 13  1  0
 14 16  1  0
 14 17  1  0
 18 15  2  0
 16 19  1  0
 16 20  2  0
 17 21  2  0
 21 18  1  0
  4 22  2  0
  4 23  1  0
 24 23  1  0
 24 25  1  0
 25 26  1  0
 25 27  1  0
 26 28  1  0
 27 29  1  0
 27 30  1  0
 30 28  1  0
 28 31  1  0
 30 32  1  0
 33 31  1  0
 34 31  1  0
 35 33  2  0
 33 36  1  0
 37 34  2  0
 38 35  1  0
 36 39  2  0
 36 37  1  0
 40 38  2  0
 40 39  1  0
 39 41  1  0
  6 42  1  6
  7 43  1  0
  7 44  1  0
  8 45  1  0
  8 46  1  0
 12 47  1  0
 12 48  1  0
 15 49  1  0
 17 50  1  0
 18 51  1  0
 21 52  1  0
 24 53  1  0
 24 54  1  0
 25 55  1  0
 27 56  1  0
 28 57  1  0
 29 58  1  0
 30 59  1  0
 32 60  1  0
 34 61  1  0
 38 62  1  0
 41 63  1  0
 41 64  1  0
M  CHG  3   5  -1  16   1  19  -1
M  END
>  <EmbedRMS>  (382) 
0.08933000584122706

$$$$

     RDKit          3D

 64 67  0  0  0  0  0  0  0  0999 V2000
   10.2846   43.7741   33.8067 C   0  0  0  0  0  0  0  0  0  0  0  0
   11.4069   43.5900   34.3636 O   0  0  0  0  0  0  0  0  0  0  0  0
    9.3678   42.7312   33.6990 O   0  0  0  0  0  0  0  0  0  0  0  0
    9.8856   41.2344   34.2840 P   0  0  0  0  0  5  0  0  0  0  0  0
   10.3659   41.4698   35.8746 O   0  0  0  0  0  1  0  0  0  0  0  0
    9.9494   45.1163   33.2551 C   0  0  2  0  0  0  0  0  0  0  0  0
   11.0750   46.0286   33.4730 N   0  0  0  0  0  0  0  0  0  0  0  0
    8.6779   45.6519   33.9435 C   0  0  0  0  0  0  0  0  0  0  0  0
    8.2021   46.9277   33.3201 C   0  0  0  0  0  0  0  0  0  0  0  0
    8.3203   48.1276   34.0305 O   0  0  0  0  0  0  0  0  0  0  0  0
    7.7126   46.9122   32.1575 O   0  0  0  0  0  0  0  0  0  0  0  0
    7.9847   49.3977   33.4755 C   0  0  0  0  0  0  0  0  0  0  0  0
    9.0086   49.8132   32.4441 C   0  0  0  0  0  0  0  0  0  0  0  0
   10.3950   49.9195   32.7477 C   0  0  0  0  0  0  0  0  0  0  0  0
    8.5744   50.0495   31.1265 C   0  0  0  0  0  0  0  0  0  0  0  0
   10.9118   49.6964   34.0739 N   0  0  0  0  0  4  0  0  0  0  0  0
   11.2976   50.2301   31.7144 C   0  0  0  0  0  0  0  0  0  0  0  0
    9.4869   50.3716   30.1218 C   0  0  0  0  0  0  0  0  0  0  0  0
   12.2014   49.2464   34.2415 O   0  0  0  0  0  1  0  0  0  0  0  0
   10.2687   50.0534   35.0816 O   0  0  0  0  0  0  0  0  0  0  0  0
   10.8459   50.4575   30.4141 C   0  0  0  0  0  0  0  0  0  0  0  0
    8.8081   40.1914   34.2083 O   0  0  0  0  0  0  0  0  0  0  0  0
   11.2373   40.7904   33.3686 O   0  0  0  0  0  0  0  0  0  0  0  0
   10.9157   40.6897   31.9957 C   0  0  0  0  0  0  0  0  0  0  0  0
   11.5271   39.3897   31.4372 C   0  0  0  0  0  0  0  0  0  0  0  0
   12.7508   39.0915   32.0838 O   0  0  0  0  0  0  0  0  0  0  0  0
   10.6122   38.1916   31.6451 C   0  0  0  0  0  0  0  0  0  0  0  0
   12.9429   37.6852   32.0295 C   0  0  0  0  0  0  0  0  0  0  0  0
    9.6070   38.0858   30.6603 O   0  0  0  0  0  0  0  0  0  0  0  0
   11.5845   37.0185   31.6879 C   0  0  0  0  0  0  0  0  0  0  0  0
   13.4899   37.2163   33.3250 N   0  0  0  0  0  0  0  0  0  0  0  0
   11.6201   36.3062   30.4693 O   0  0  0  0  0  0  0  0  0  0  0  0
   14.4759   36.3263   33.5739 C   0  0  0  0  0  0  0  0  0  0  0  0
   13.1175   37.6307   34.5699 C   0  0  0  0  0  0  0  0  0  0  0  0
   15.2065   35.6139   32.6746 N   0  0  0  0  0  0  0  0  0  0  0  0
   14.6731   36.2267   34.9191 C   0  0  0  0  0  0  0  0  0  0  0  0
   13.8224   37.0450   35.5792 N   0  0  0  0  0  0  0  0  0  0  0  0
   16.1640   34.7595   33.1551 C   0  0  0  0  0  0  0  0  0  0  0  0
   15.6517   35.3489   35.4136 C   0  0  0  0  0  0  0  0  0  0  0  0
   16.3795   34.6309   34.5046 N   0  0  0  0  0  0  0  0  0  0  0  0
   15.9006   35.1931   36.8094 N   0  0  0  0  0  0  0  0  0  0  0  0
    9.7636   45.0052   32.1626 H   0  0  0  0  0  0  0  0  0  0  0  0
   10.8479   46.9492   33.0336 H   0  0  0  0  0  0  0  0  0  0  0  0
   11.8987   45.6724   32.9343 H   0  0  0  0  0  0  0  0  0  0  0  0
    8.8779   45.8202   35.0246 H   0  0  0  0  0  0  0  0  0  0  0  0
    7.8578   44.9052   33.8633 H   0  0  0  0  0  0  0  0  0  0  0  0
    6.9602   49.3510   33.0446 H   0  0  0  0  0  0  0  0  0  0  0  0
    7.9429   50.1552   34.2840 H   0  0  0  0  0  0  0  0  0  0  0  0
    7.5251   49.9720   30.8697 H   0  0  0  0  0  0  0  0  0  0  0  0
   12.3576   50.3117   31.9188 H   0  0  0  0  0  0  0  0  0  0  0  0
    9.1395   50.5477   29.1119 H   0  0  0  0  0  0  0  0  0  0  0  0
   11.5523   50.7030   29.6315 H   0  0  0  0  0  0  0  0  0  0  0  0
   11.3828   41.5525   31.4742 H   0  0  0  0  0  0  0  0  0  0  0  0
    9.8256   40.7191   31.7584 H   0  0  0  0  0  0  0  0  0  0  0  0
   11.7320   39.5336   30.3518 H   0  0  0  0  0  0  0  0  0  0  0  0
   10.1215   38.2683   32.6412 H   0  0  0  0  0  0  0  0  0  0  0  0
   13.6882   37.4706   31.2319 H   0  0  0  0  0  0  0  0  0  0  0  0
   10.0256   38.1750   29.7656 H   0  0  0  0  0  0  0  0  0  0  0  0
   11.2795   36.3123   32.4915 H   0  0  0  0  0  0  0  0  0  0  0  0
   11.9872   36.9099   29.7714 H   0  0  0  0  0  0  0  0  0  0  0  0
   12.3365   38.3595   34.7453 H   0  0  0  0  0  0  0  0  0  0  0  0
   16.7577   34.1794   32.4622 H   0  0  0  0  0  0  0  0  0  0  0  0
   16.6368   34.5316   37.1418 H   0  0  0  0  0  0  0  0  0  0  0  0
   15.3532   35.7351   37.5143 H   0  0  0  0  0  0  0  0  0  0  0  0
  1  2  2  0
  1  3  1  0
  3  4  1  0
  4  5  1  0
  6  1  1  0
  7  6  1  0
  6  8  1  0
  8  9  1  0
  9 10  1  0
  9 11  2  0
 10 12  1  0
 12 13  1  0
 13 14  2  0
 15 13  1  0
 14 16  1  0
 14 17  1  0
 18 15  2  0
 16 19  1  0
 16 20  2  0
 17 21  2  0
 21 18  1  0
  4 22  2  0
  4 23  1  0
 24 23  1  0
 24 25  1  0
 25 26  1  0
 25 27  1  0
 26 28  1  0
 27 29  1  0
 27 30  1  0
 30 28  1  0
 28 31  1  0
 30 32  1  0
 33 31  1  0
 34 31  1  0
 35 33  2  0
 33 36  1  0
 37 34  2  0
 38 35  1  0
 36 39  2  0
 36 37  1  0
 40 38  2  0
 40 39  1  0
 39 41  1  0
  6 42  1  6
  7 43  1  0
  7 44  1  0
  8 45  1  0
  8 46  1  0
 12 47  1  0
 12 48  1  0
 15 49  1  0
 17 50  1  0
 18 51  1  0
 21 52  1  0
 24 53  1  0
 24 54  1  0
 25 55  1  0
 27 56  1  0
 28 57  1  0
 29 58  1  0
 30 59  1  0
 32 60  1  0
 34 61  1  0
 38 62  1  0
 41 63  1  0
 41 64  1  0
M  CHG  3   5  -1  16   1  19  -1
M  END
>  <EmbedRMS>  (383) 
0.0870860691115607

$$$$

     RDKit          3D

 64 67  0  0  0  0  0  0  0  0999 V2000
   10.2875   43.7689   33.8087 C   0  0  0  0  0  0  0  0  0  0  0  0
   11.4116   43.5793   34.3595 O   0  0  0  0  0  0  0  0  0  0  0  0
    9.3663   42.7306   33.7023 O   0  0  0  0  0  0  0  0  0  0  0  0
    9.8837   41.2330   34.2850 P   0  0  0  0  0  5  0  0  0  0  0  0
   10.3646   41.4682   35.8754 O   0  0  0  0  0  1  0  0  0  0  0  0
    9.9639   45.1116   33.2466 C   0  0  2  0  0  0  0  0  0  0  0  0
   11.0621   46.0542   33.4766 N   0  0  0  0  0  0  0  0  0  0  0  0
    8.6419   45.6681   33.8096 C   0  0  0  0  0  0  0  0  0  0  0  0
    8.6645   45.8209   35.3016 C   0  0  0  0  0  0  0  0  0  0  0  0
    9.1511   47.0038   35.8639 O   0  0  0  0  0  0  0  0  0  0  0  0
    8.2768   44.8711   36.0358 O   0  0  0  0  0  0  0  0  0  0  0  0
    9.2499   47.2026   37.2695 C   0  0  0  0  0  0  0  0  0  0  0  0
    9.8315   48.5646   37.5407 C   0  0  0  0  0  0  0  0  0  0  0  0
    9.0249   49.7300   37.6253 C   0  0  0  0  0  0  0  0  0  0  0  0
   11.2236   48.6772   37.7069 C   0  0  0  0  0  0  0  0  0  0  0  0
    7.6037   49.6863   37.4038 N   0  0  0  0  0  4  0  0  0  0  0  0
    9.6327   50.9612   37.9337 C   0  0  0  0  0  0  0  0  0  0  0  0
   11.8084   49.9110   37.9949 C   0  0  0  0  0  0  0  0  0  0  0  0
    7.0767   48.9170   36.3924 O   0  0  0  0  0  1  0  0  0  0  0  0
    6.8518   50.4793   38.0076 O   0  0  0  0  0  0  0  0  0  0  0  0
   11.0136   51.0493   38.1161 C   0  0  0  0  0  0  0  0  0  0  0  0
    8.8063   40.1902   34.2086 O   0  0  0  0  0  0  0  0  0  0  0  0
   11.2359   40.7899   33.3693 O   0  0  0  0  0  0  0  0  0  0  0  0
   10.9151   40.6897   31.9962 C   0  0  0  0  0  0  0  0  0  0  0  0
   11.5268   39.3898   31.4375 C   0  0  0  0  0  0  0  0  0  0  0  0
   12.7506   39.0917   32.0839 O   0  0  0  0  0  0  0  0  0  0  0  0
   10.6121   38.1915   31.6452 C   0  0  0  0  0  0  0  0  0  0  0  0
   12.9429   37.6853   32.0295 C   0  0  0  0  0  0  0  0  0  0  0  0
    9.6069   38.0857   30.6602 O   0  0  0  0  0  0  0  0  0  0  0  0
   11.5845   37.0186   31.6879 C   0  0  0  0  0  0  0  0  0  0  0  0
   13.4899   37.2164   33.3250 N   0  0  0  0  0  0  0  0  0  0  0  0
   11.6202   36.3063   30.4693 O   0  0  0  0  0  0  0  0  0  0  0  0
   14.4759   36.3263   33.5738 C   0  0  0  0  0  0  0  0  0  0  0  0
   13.1176   37.6308   34.5699 C   0  0  0  0  0  0  0  0  0  0  0  0
   15.2065   35.6139   32.6746 N   0  0  0  0  0  0  0  0  0  0  0  0
   14.6731   36.2267   34.9191 C   0  0  0  0  0  0  0  0  0  0  0  0
   13.8224   37.0450   35.5792 N   0  0  0  0  0  0  0  0  0  0  0  0
   16.1640   34.7596   33.1551 C   0  0  0  0  0  0  0  0  0  0  0  0
   15.6517   35.3489   35.4136 C   0  0  0  0  0  0  0  0  0  0  0  0
   16.3795   34.6310   34.5045 N   0  0  0  0  0  0  0  0  0  0  0  0
   15.9006   35.1931   36.8094 N   0  0  0  0  0  0  0  0  0  0  0  0
    9.8340   44.9915   32.1485 H   0  0  0  0  0  0  0  0  0  0  0  0
   11.9092   45.7284   32.9555 H   0  0  0  0  0  0  0  0  0  0  0  0
   11.3047   46.0959   34.4937 H   0  0  0  0  0  0  0  0  0  0  0  0
    8.4397   46.6597   33.3501 H   0  0  0  0  0  0  0  0  0  0  0  0
    7.8021   44.9987   33.5205 H   0  0  0  0  0  0  0  0  0  0  0  0
    8.2507   47.1017   37.7448 H   0  0  0  0  0  0  0  0  0  0  0  0
    9.8988   46.4130   37.7088 H   0  0  0  0  0  0  0  0  0  0  0  0
   11.8587   47.8036   37.6236 H   0  0  0  0  0  0  0  0  0  0  0  0
    9.0366   51.8617   38.0114 H   0  0  0  0  0  0  0  0  0  0  0  0
   12.8801   49.9835   38.1285 H   0  0  0  0  0  0  0  0  0  0  0  0
   11.4693   52.0046   38.3428 H   0  0  0  0  0  0  0  0  0  0  0  0
   11.3822   41.5527   31.4752 H   0  0  0  0  0  0  0  0  0  0  0  0
    9.8250   40.7190   31.7587 H   0  0  0  0  0  0  0  0  0  0  0  0
   11.7316   39.5340   30.3521 H   0  0  0  0  0  0  0  0  0  0  0  0
   10.1213   38.2680   32.6412 H   0  0  0  0  0  0  0  0  0  0  0  0
   13.6882   37.4709   31.2319 H   0  0  0  0  0  0  0  0  0  0  0  0
   10.0257   38.1750   29.7656 H   0  0  0  0  0  0  0  0  0  0  0  0
   11.2796   36.3123   32.4915 H   0  0  0  0  0  0  0  0  0  0  0  0
   11.9872   36.9099   29.7715 H   0  0  0  0  0  0  0  0  0  0  0  0
   12.3365   38.3596   34.7454 H   0  0  0  0  0  0  0  0  0  0  0  0
   16.7576   34.1794   32.4622 H   0  0  0  0  0  0  0  0  0  0  0  0
   16.6368   34.5316   37.1418 H   0  0  0  0  0  0  0  0  0  0  0  0
   15.3532   35.7351   37.5143 H   0  0  0  0  0  0  0  0  0  0  0  0
  1  2  2  0
  1  3  1  0
  3  4  1  0
  4  5  1  0
  6  1  1  0
  7  6  1  0
  6  8  1  0
  8  9  1  0
  9 10  1  0
  9 11  2  0
 10 12  1  0
 12 13  1  0
 13 14  2  0
 15 13  1  0
 14 16  1  0
 14 17  1  0
 18 15  2  0
 16 19  1  0
 16 20  2  0
 17 21  2  0
 21 18  1  0
  4 22  2  0
  4 23  1  0
 24 23  1  0
 24 25  1  0
 25 26  1  0
 25 27  1  0
 26 28  1  0
 27 29  1  0
 27 30  1  0
 30 28  1  0
 28 31  1  0
 30 32  1  0
 33 31  1  0
 34 31  1  0
 35 33  2  0
 33 36  1  0
 37 34  2  0
 38 35  1  0
 36 39  2  0
 36 37  1  0
 40 38  2  0
 40 39  1  0
 39 41  1  0
  6 42  1  6
  7 43  1  0
  7 44  1  0
  8 45  1  0
  8 46  1  0
 12 47  1  0
 12 48  1  0
 15 49  1  0
 17 50  1  0
 18 51  1  0
 21 52  1  0
 24 53  1  0
 24 54  1  0
 25 55  1  0
 27 56  1  0
 28 57  1  0
 29 58  1  0
 30 59  1  0
 32 60  1  0
 34 61  1  0
 38 62  1  0
 41 63  1  0
 41 64  1  0
M  CHG  3   5  -1  16   1  19  -1
M  END
>  <EmbedRMS>  (384) 
0.08764911089090628

$$$$

     RDKit          3D

 64 67  0  0  0  0  0  0  0  0999 V2000
   10.2844   43.7741   33.8072 C   0  0  0  0  0  0  0  0  0  0  0  0
   11.4069   43.5903   34.3639 O   0  0  0  0  0  0  0  0  0  0  0  0
    9.3681   42.7309   33.6990 O   0  0  0  0  0  0  0  0  0  0  0  0
    9.8864   41.2339   34.2832 P   0  0  0  0  0  5  0  0  0  0  0  0
   10.3660   41.4693   35.8740 O   0  0  0  0  0  1  0  0  0  0  0  0
    9.9501   45.1151   33.2533 C   0  0  2  0  0  0  0  0  0  0  0  0
   11.0750   46.0284   33.4736 N   0  0  0  0  0  0  0  0  0  0  0  0
    8.6744   45.6514   33.9331 C   0  0  0  0  0  0  0  0  0  0  0  0
    8.2030   46.9192   33.2910 C   0  0  0  0  0  0  0  0  0  0  0  0
    7.7584   46.8924   31.9648 O   0  0  0  0  0  0  0  0  0  0  0  0
    8.2363   48.0014   33.9382 O   0  0  0  0  0  0  0  0  0  0  0  0
    7.4628   48.0703   31.2175 C   0  0  0  0  0  0  0  0  0  0  0  0
    8.7234   48.8616   30.9491 C   0  0  0  0  0  0  0  0  0  0  0  0
    9.8712   48.2802   30.3413 C   0  0  0  0  0  0  0  0  0  0  0  0
    8.7734   50.2050   31.3647 C   0  0  0  0  0  0  0  0  0  0  0  0
    9.8869   46.9170   29.8778 N   0  0  0  0  0  4  0  0  0  0  0  0
   11.0376   49.0542   30.2051 C   0  0  0  0  0  0  0  0  0  0  0  0
    9.9364   50.9584   31.2035 C   0  0  0  0  0  0  0  0  0  0  0  0
   11.0700   46.2148   29.8496 O   0  0  0  0  0  1  0  0  0  0  0  0
    8.8772   46.4089   29.3494 O   0  0  0  0  0  0  0  0  0  0  0  0
   11.0676   50.3828   30.6300 C   0  0  0  0  0  0  0  0  0  0  0  0
    8.8088   40.1911   34.2072 O   0  0  0  0  0  0  0  0  0  0  0  0
   11.2391   40.7901   33.3682 O   0  0  0  0  0  0  0  0  0  0  0  0
   10.9199   40.6896   31.9945 C   0  0  0  0  0  0  0  0  0  0  0  0
   11.5173   39.3801   31.4395 C   0  0  0  0  0  0  0  0  0  0  0  0
   12.7480   39.0861   32.0732 O   0  0  0  0  0  0  0  0  0  0  0  0
   10.6032   38.1892   31.6666 C   0  0  0  0  0  0  0  0  0  0  0  0
   12.9336   37.6796   32.0279 C   0  0  0  0  0  0  0  0  0  0  0  0
    9.6397   38.0777   30.6456 O   0  0  0  0  0  0  0  0  0  0  0  0
   11.5739   37.0154   31.7057 C   0  0  0  0  0  0  0  0  0  0  0  0
   13.4903   37.2178   33.3231 N   0  0  0  0  0  0  0  0  0  0  0  0
   11.6210   36.3376   30.4695 O   0  0  0  0  0  0  0  0  0  0  0  0
   14.4761   36.3273   33.5725 C   0  0  0  0  0  0  0  0  0  0  0  0
   13.1179   37.6316   34.5684 C   0  0  0  0  0  0  0  0  0  0  0  0
   15.2063   35.6139   32.6737 N   0  0  0  0  0  0  0  0  0  0  0  0
   14.6733   36.2277   34.9179 C   0  0  0  0  0  0  0  0  0  0  0  0
   13.8225   37.0459   35.5779 N   0  0  0  0  0  0  0  0  0  0  0  0
   16.1636   34.7594   33.1546 C   0  0  0  0  0  0  0  0  0  0  0  0
   15.6515   35.3494   35.4129 C   0  0  0  0  0  0  0  0  0  0  0  0
   16.3791   34.6311   34.5041 N   0  0  0  0  0  0  0  0  0  0  0  0
   15.9001   35.1935   36.8088 N   0  0  0  0  0  0  0  0  0  0  0  0
    9.7694   45.0001   32.1607 H   0  0  0  0  0  0  0  0  0  0  0  0
   11.8946   45.6804   32.9233 H   0  0  0  0  0  0  0  0  0  0  0  0
   10.8443   46.9570   33.0521 H   0  0  0  0  0  0  0  0  0  0  0  0
    7.8553   44.9050   33.8459 H   0  0  0  0  0  0  0  0  0  0  0  0
    8.8664   45.8214   35.0160 H   0  0  0  0  0  0  0  0  0  0  0  0
    6.9935   47.7863   30.2535 H   0  0  0  0  0  0  0  0  0  0  0  0
    6.7085   48.6725   31.7702 H   0  0  0  0  0  0  0  0  0  0  0  0
    7.9129   50.6704   31.8295 H   0  0  0  0  0  0  0  0  0  0  0  0
   11.9254   48.6319   29.7519 H   0  0  0  0  0  0  0  0  0  0  0  0
    9.9625   51.9895   31.5319 H   0  0  0  0  0  0  0  0  0  0  0  0
   11.9702   50.9682   30.5110 H   0  0  0  0  0  0  0  0  0  0  0  0
   11.4017   41.5437   31.4725 H   0  0  0  0  0  0  0  0  0  0  0  0
    9.8321   40.7400   31.7543 H   0  0  0  0  0  0  0  0  0  0  0  0
   11.6984   39.5041   30.3468 H   0  0  0  0  0  0  0  0  0  0  0  0
   10.1091   38.2634   32.6649 H   0  0  0  0  0  0  0  0  0  0  0  0
   13.6656   37.4539   31.2207 H   0  0  0  0  0  0  0  0  0  0  0  0
    8.8967   38.6903   30.8850 H   0  0  0  0  0  0  0  0  0  0  0  0
   11.2845   36.3060   32.5175 H   0  0  0  0  0  0  0  0  0  0  0  0
   10.8523   35.7095   30.4590 H   0  0  0  0  0  0  0  0  0  0  0  0
   12.3353   38.3588   34.7439 H   0  0  0  0  0  0  0  0  0  0  0  0
   16.7570   34.1788   32.4619 H   0  0  0  0  0  0  0  0  0  0  0  0
   16.6360   34.5317   37.1413 H   0  0  0  0  0  0  0  0  0  0  0  0
   15.3529   35.7359   37.5136 H   0  0  0  0  0  0  0  0  0  0  0  0
  1  2  2  0
  1  3  1  0
  3  4  1  0
  4  5  1  0
  6  1  1  0
  7  6  1  0
  6  8  1  0
  8  9  1  0
  9 10  1  0
  9 11  2  0
 10 12  1  0
 12 13  1  0
 13 14  2  0
 15 13  1  0
 14 16  1  0
 14 17  1  0
 18 15  2  0
 16 19  1  0
 16 20  2  0
 17 21  2  0
 21 18  1  0
  4 22  2  0
  4 23  1  0
 24 23  1  0
 24 25  1  0
 25 26  1  0
 25 27  1  0
 26 28  1  0
 27 29  1  0
 27 30  1  0
 30 28  1  0
 28 31  1  0
 30 32  1  0
 33 31  1  0
 34 31  1  0
 35 33  2  0
 33 36  1  0
 37 34  2  0
 38 35  1  0
 36 39  2  0
 36 37  1  0
 40 38  2  0
 40 39  1  0
 39 41  1  0
  6 42  1  6
  7 43  1  0
  7 44  1  0
  8 45  1  0
  8 46  1  0
 12 47  1  0
 12 48  1  0
 15 49  1  0
 17 50  1  0
 18 51  1  0
 21 52  1  0
 24 53  1  0
 24 54  1  0
 25 55  1  0
 27 56  1  0
 28 57  1  0
 29 58  1  0
 30 59  1  0
 32 60  1  0
 34 61  1  0
 38 62  1  0
 41 63  1  0
 41 64  1  0
M  CHG  3   5  -1  16   1  19  -1
M  END
>  <EmbedRMS>  (385) 
0.0894758659757105

$$$$

     RDKit          3D

 64 67  0  0  0  0  0  0  0  0999 V2000
   10.2801   43.7759   33.8037 C   0  0  0  0  0  0  0  0  0  0  0  0
   11.4075   43.5890   34.3502 O   0  0  0  0  0  0  0  0  0  0  0  0
    9.3657   42.7320   33.6972 O   0  0  0  0  0  0  0  0  0  0  0  0
    9.8857   41.2352   34.2819 P   0  0  0  0  0  5  0  0  0  0  0  0
   10.3660   41.4712   35.8725 O   0  0  0  0  0  1  0  0  0  0  0  0
    9.9389   45.1271   33.2738 C   0  0  2  0  0  0  0  0  0  0  0  0
   11.0850   46.0179   33.4698 N   0  0  0  0  0  0  0  0  0  0  0  0
    8.6818   45.7014   33.9775 C   0  0  0  0  0  0  0  0  0  0  0  0
    7.4220   45.4284   33.2109 C   0  0  0  0  0  0  0  0  0  0  0  0
    6.9342   44.1208   33.1071 O   0  0  0  0  0  0  0  0  0  0  0  0
    6.8049   46.3870   32.6704 O   0  0  0  0  0  0  0  0  0  0  0  0
    5.6899   43.7989   32.4850 C   0  0  0  0  0  0  0  0  0  0  0  0
    5.7216   44.1076   31.0043 C   0  0  0  0  0  0  0  0  0  0  0  0
    6.7302   43.5940   30.1479 C   0  0  0  0  0  0  0  0  0  0  0  0
    4.7474   44.9738   30.4742 C   0  0  0  0  0  0  0  0  0  0  0  0
    7.7323   42.6814   30.6255 N   0  0  0  0  0  4  0  0  0  0  0  0
    6.7543   43.9927   28.7991 C   0  0  0  0  0  0  0  0  0  0  0  0
    4.7788   45.3436   29.1289 C   0  0  0  0  0  0  0  0  0  0  0  0
    7.3883   41.6473   31.4643 O   0  0  0  0  0  1  0  0  0  0  0  0
    8.8836   42.7091   30.1436 O   0  0  0  0  0  0  0  0  0  0  0  0
    5.7837   44.8588   28.2944 C   0  0  0  0  0  0  0  0  0  0  0  0
    8.8082   40.1921   34.2075 O   0  0  0  0  0  0  0  0  0  0  0  0
   11.2383   40.7904   33.3665 O   0  0  0  0  0  0  0  0  0  0  0  0
   10.9160   40.6829   31.9940 C   0  0  0  0  0  0  0  0  0  0  0  0
   11.5183   39.3767   31.4397 C   0  0  0  0  0  0  0  0  0  0  0  0
   12.7485   39.0847   32.0742 O   0  0  0  0  0  0  0  0  0  0  0  0
   10.6056   38.1864   31.6670 C   0  0  0  0  0  0  0  0  0  0  0  0
   12.9351   37.6784   32.0283 C   0  0  0  0  0  0  0  0  0  0  0  0
    9.6385   38.0922   30.6489 O   0  0  0  0  0  0  0  0  0  0  0  0
   11.5765   37.0125   31.7055 C   0  0  0  0  0  0  0  0  0  0  0  0
   13.4910   37.2172   33.3235 N   0  0  0  0  0  0  0  0  0  0  0  0
   11.6236   36.3370   30.4681 O   0  0  0  0  0  0  0  0  0  0  0  0
   14.4766   36.3269   33.5729 C   0  0  0  0  0  0  0  0  0  0  0  0
   13.1182   37.6313   34.5686 C   0  0  0  0  0  0  0  0  0  0  0  0
   15.2067   35.6135   32.6740 N   0  0  0  0  0  0  0  0  0  0  0  0
   14.6737   36.2274   34.9183 C   0  0  0  0  0  0  0  0  0  0  0  0
   13.8228   37.0456   35.5782 N   0  0  0  0  0  0  0  0  0  0  0  0
   16.1640   34.7591   33.1549 C   0  0  0  0  0  0  0  0  0  0  0  0
   15.6518   35.3492   35.4132 C   0  0  0  0  0  0  0  0  0  0  0  0
   16.3794   34.6308   34.5044 N   0  0  0  0  0  0  0  0  0  0  0  0
   15.9003   35.1933   36.8091 N   0  0  0  0  0  0  0  0  0  0  0  0
    9.7574   45.0309   32.1793 H   0  0  0  0  0  0  0  0  0  0  0  0
   10.9088   46.9085   32.9497 H   0  0  0  0  0  0  0  0  0  0  0  0
   11.1738   46.2611   34.4845 H   0  0  0  0  0  0  0  0  0  0  0  0
    8.5783   45.2907   35.0059 H   0  0  0  0  0  0  0  0  0  0  0  0
    8.7821   46.8038   34.0913 H   0  0  0  0  0  0  0  0  0  0  0  0
    5.4720   42.7220   32.6342 H   0  0  0  0  0  0  0  0  0  0  0  0
    4.8768   44.3569   32.9991 H   0  0  0  0  0  0  0  0  0  0  0  0
    3.9668   45.3781   31.1067 H   0  0  0  0  0  0  0  0  0  0  0  0
    7.5186   43.6161   28.1310 H   0  0  0  0  0  0  0  0  0  0  0  0
    4.0263   46.0145   28.7349 H   0  0  0  0  0  0  0  0  0  0  0  0
    5.8087   45.1510   27.2525 H   0  0  0  0  0  0  0  0  0  0  0  0
   11.3830   41.5415   31.4659 H   0  0  0  0  0  0  0  0  0  0  0  0
    9.8276   40.7078   31.7611 H   0  0  0  0  0  0  0  0  0  0  0  0
   11.7002   39.5013   30.3471 H   0  0  0  0  0  0  0  0  0  0  0  0
   10.1106   38.2766   32.6630 H   0  0  0  0  0  0  0  0  0  0  0  0
   13.6679   37.4536   31.2215 H   0  0  0  0  0  0  0  0  0  0  0  0
    8.9768   37.4185   30.9545 H   0  0  0  0  0  0  0  0  0  0  0  0
   11.2863   36.3036   32.5174 H   0  0  0  0  0  0  0  0  0  0  0  0
   10.8685   35.6925   30.4650 H   0  0  0  0  0  0  0  0  0  0  0  0
   12.3356   38.3584   34.7438 H   0  0  0  0  0  0  0  0  0  0  0  0
   16.7574   34.1785   32.4622 H   0  0  0  0  0  0  0  0  0  0  0  0
   15.3531   35.7357   37.5139 H   0  0  0  0  0  0  0  0  0  0  0  0
   16.6362   34.5315   37.1417 H   0  0  0  0  0  0  0  0  0  0  0  0
  1  2  2  0
  1  3  1  0
  3  4  1  0
  4  5  1  0
  6  1  1  0
  7  6  1  0
  6  8  1  0
  8  9  1  0
  9 10  1  0
  9 11  2  0
 10 12  1  0
 12 13  1  0
 13 14  2  0
 15 13  1  0
 14 16  1  0
 14 17  1  0
 18 15  2  0
 16 19  1  0
 16 20  2  0
 17 21  2  0
 21 18  1  0
  4 22  2  0
  4 23  1  0
 24 23  1  0
 24 25  1  0
 25 26  1  0
 25 27  1  0
 26 28  1  0
 27 29  1  0
 27 30  1  0
 30 28  1  0
 28 31  1  0
 30 32  1  0
 33 31  1  0
 34 31  1  0
 35 33  2  0
 33 36  1  0
 37 34  2  0
 38 35  1  0
 36 39  2  0
 36 37  1  0
 40 38  2  0
 40 39  1  0
 39 41  1  0
  6 42  1  6
  7 43  1  0
  7 44  1  0
  8 45  1  0
  8 46  1  0
 12 47  1  0
 12 48  1  0
 15 49  1  0
 17 50  1  0
 18 51  1  0
 21 52  1  0
 24 53  1  0
 24 54  1  0
 25 55  1  0
 27 56  1  0
 28 57  1  0
 29 58  1  0
 30 59  1  0
 32 60  1  0
 34 61  1  0
 38 62  1  0
 41 63  1  0
 41 64  1  0
M  CHG  3   5  -1  16   1  19  -1
M  END
>  <EmbedRMS>  (386) 
0.08948600331981547

$$$$

     RDKit          3D

 64 67  0  0  0  0  0  0  0  0999 V2000
   10.2870   43.7698   33.8108 C   0  0  0  0  0  0  0  0  0  0  0  0
   11.4131   43.5791   34.3566 O   0  0  0  0  0  0  0  0  0  0  0  0
    9.3661   42.7312   33.7048 O   0  0  0  0  0  0  0  0  0  0  0  0
    9.8843   41.2326   34.2841 P   0  0  0  0  0  5  0  0  0  0  0  0
   10.3655   41.4642   35.8746 O   0  0  0  0  0  1  0  0  0  0  0  0
    9.9671   45.1093   33.2399 C   0  0  2  0  0  0  0  0  0  0  0  0
   11.0597   46.0560   33.4800 N   0  0  0  0  0  0  0  0  0  0  0  0
    8.6337   45.6649   33.7766 C   0  0  0  0  0  0  0  0  0  0  0  0
    8.6662   45.9377   35.2513 C   0  0  0  0  0  0  0  0  0  0  0  0
    8.5809   44.8713   36.1535 O   0  0  0  0  0  0  0  0  0  0  0  0
    8.7967   47.1222   35.6633 O   0  0  0  0  0  0  0  0  0  0  0  0
    8.6298   45.0322   37.5708 C   0  0  0  0  0  0  0  0  0  0  0  0
    9.9957   45.5081   38.0132 C   0  0  0  0  0  0  0  0  0  0  0  0
   10.1870   46.6443   38.8443 C   0  0  0  0  0  0  0  0  0  0  0  0
   11.1113   44.7345   37.6470 C   0  0  0  0  0  0  0  0  0  0  0  0
    9.0951   47.4787   39.2583 N   0  0  0  0  0  4  0  0  0  0  0  0
   11.4823   46.9618   39.2871 C   0  0  0  0  0  0  0  0  0  0  0  0
   12.3926   45.0778   38.0795 C   0  0  0  0  0  0  0  0  0  0  0  0
    9.0557   47.9541   40.5487 O   0  0  0  0  0  1  0  0  0  0  0  0
    8.3393   47.9894   38.4068 O   0  0  0  0  0  0  0  0  0  0  0  0
   12.5775   46.1880   38.9009 C   0  0  0  0  0  0  0  0  0  0  0  0
    8.8064   40.1904   34.2073 O   0  0  0  0  0  0  0  0  0  0  0  0
   11.2363   40.7905   33.3664 O   0  0  0  0  0  0  0  0  0  0  0  0
   10.9137   40.6851   31.9935 C   0  0  0  0  0  0  0  0  0  0  0  0
   11.5164   39.3775   31.4396 C   0  0  0  0  0  0  0  0  0  0  0  0
   12.7470   39.0856   32.0741 O   0  0  0  0  0  0  0  0  0  0  0  0
   10.6046   38.1867   31.6670 C   0  0  0  0  0  0  0  0  0  0  0  0
   12.9345   37.6793   32.0283 C   0  0  0  0  0  0  0  0  0  0  0  0
    9.6378   38.0918   30.6488 O   0  0  0  0  0  0  0  0  0  0  0  0
   11.5761   37.0130   31.7057 C   0  0  0  0  0  0  0  0  0  0  0  0
   13.4909   37.2178   33.3234 N   0  0  0  0  0  0  0  0  0  0  0  0
   11.6234   36.3372   30.4684 O   0  0  0  0  0  0  0  0  0  0  0  0
   14.4765   36.3272   33.5727 C   0  0  0  0  0  0  0  0  0  0  0  0
   13.1182   37.6316   34.5686 C   0  0  0  0  0  0  0  0  0  0  0  0
   15.2066   35.6138   32.6739 N   0  0  0  0  0  0  0  0  0  0  0  0
   14.6735   36.2276   34.9182 C   0  0  0  0  0  0  0  0  0  0  0  0
   13.8227   37.0458   35.5781 N   0  0  0  0  0  0  0  0  0  0  0  0
   16.1638   34.7593   33.1547 C   0  0  0  0  0  0  0  0  0  0  0  0
   15.6516   35.3493   35.4131 C   0  0  0  0  0  0  0  0  0  0  0  0
   16.3792   34.6309   34.5043 N   0  0  0  0  0  0  0  0  0  0  0  0
   15.9002   35.1934   36.8090 N   0  0  0  0  0  0  0  0  0  0  0  0
    9.8542   44.9811   32.1408 H   0  0  0  0  0  0  0  0  0  0  0  0
   11.2873   46.1025   34.5007 H   0  0  0  0  0  0  0  0  0  0  0  0
   11.9149   45.7300   32.9725 H   0  0  0  0  0  0  0  0  0  0  0  0
    8.3912   46.6048   33.2338 H   0  0  0  0  0  0  0  0  0  0  0  0
    7.8129   44.9468   33.5617 H   0  0  0  0  0  0  0  0  0  0  0  0
    7.8044   45.6939   37.8961 H   0  0  0  0  0  0  0  0  0  0  0  0
    8.4394   44.0438   38.0394 H   0  0  0  0  0  0  0  0  0  0  0  0
   10.9853   43.8529   37.0331 H   0  0  0  0  0  0  0  0  0  0  0  0
   11.6452   47.8238   39.9218 H   0  0  0  0  0  0  0  0  0  0  0  0
   13.2420   44.4744   37.7862 H   0  0  0  0  0  0  0  0  0  0  0  0
   13.5713   46.4491   39.2411 H   0  0  0  0  0  0  0  0  0  0  0  0
    9.8237   40.7214   31.7568 H   0  0  0  0  0  0  0  0  0  0  0  0
   11.3866   41.5418   31.4675 H   0  0  0  0  0  0  0  0  0  0  0  0
   11.6984   39.5016   30.3470 H   0  0  0  0  0  0  0  0  0  0  0  0
   10.1094   38.2770   32.6629 H   0  0  0  0  0  0  0  0  0  0  0  0
   13.6672   37.4548   31.2213 H   0  0  0  0  0  0  0  0  0  0  0  0
    8.9779   37.4157   30.9533 H   0  0  0  0  0  0  0  0  0  0  0  0
   11.2861   36.3042   32.5177 H   0  0  0  0  0  0  0  0  0  0  0  0
   10.8690   35.6919   30.4657 H   0  0  0  0  0  0  0  0  0  0  0  0
   12.3356   38.3588   34.7440 H   0  0  0  0  0  0  0  0  0  0  0  0
   16.7571   34.1786   32.4621 H   0  0  0  0  0  0  0  0  0  0  0  0
   16.6361   34.5315   37.1415 H   0  0  0  0  0  0  0  0  0  0  0  0
   15.3530   35.7358   37.5138 H   0  0  0  0  0  0  0  0  0  0  0  0
  1  2  2  0
  1  3  1  0
  3  4  1  0
  4  5  1  0
  6  1  1  0
  7  6  1  0
  6  8  1  0
  8  9  1  0
  9 10  1  0
  9 11  2  0
 10 12  1  0
 12 13  1  0
 13 14  2  0
 15 13  1  0
 14 16  1  0
 14 17  1  0
 18 15  2  0
 16 19  1  0
 16 20  2  0
 17 21  2  0
 21 18  1  0
  4 22  2  0
  4 23  1  0
 24 23  1  0
 24 25  1  0
 25 26  1  0
 25 27  1  0
 26 28  1  0
 27 29  1  0
 27 30  1  0
 30 28  1  0
 28 31  1  0
 30 32  1  0
 33 31  1  0
 34 31  1  0
 35 33  2  0
 33 36  1  0
 37 34  2  0
 38 35  1  0
 36 39  2  0
 36 37  1  0
 40 38  2  0
 40 39  1  0
 39 41  1  0
  6 42  1  6
  7 43  1  0
  7 44  1  0
  8 45  1  0
  8 46  1  0
 12 47  1  0
 12 48  1  0
 15 49  1  0
 17 50  1  0
 18 51  1  0
 21 52  1  0
 24 53  1  0
 24 54  1  0
 25 55  1  0
 27 56  1  0
 28 57  1  0
 29 58  1  0
 30 59  1  0
 32 60  1  0
 34 61  1  0
 38 62  1  0
 41 63  1  0
 41 64  1  0
M  CHG  3   5  -1  16   1  19  -1
M  END
>  <EmbedRMS>  (387) 
0.08983896329437316

$$$$

     RDKit          3D

 64 67  0  0  0  0  0  0  0  0999 V2000
   10.2860   43.7720   33.8046 C   0  0  0  0  0  0  0  0  0  0  0  0
   11.4085   43.5885   34.3611 O   0  0  0  0  0  0  0  0  0  0  0  0
    9.3674   42.7309   33.6992 O   0  0  0  0  0  0  0  0  0  0  0  0
    9.8853   41.2341   34.2839 P   0  0  0  0  0  5  0  0  0  0  0  0
   10.3659   41.4700   35.8743 O   0  0  0  0  0  1  0  0  0  0  0  0
    9.9531   45.1147   33.2530 C   0  0  2  0  0  0  0  0  0  0  0  0
   11.0712   46.0333   33.4769 N   0  0  0  0  0  0  0  0  0  0  0  0
    8.6596   45.6652   33.8874 C   0  0  0  0  0  0  0  0  0  0  0  0
    8.7885   45.8561   35.3697 C   0  0  0  0  0  0  0  0  0  0  0  0
    9.4248   46.9983   35.8623 O   0  0  0  0  0  0  0  0  0  0  0  0
    8.3558   44.9703   36.1567 O   0  0  0  0  0  0  0  0  0  0  0  0
    9.6195   47.2319   37.2548 C   0  0  0  0  0  0  0  0  0  0  0  0
   10.3409   48.5399   37.4881 C   0  0  0  0  0  0  0  0  0  0  0  0
   11.1507   48.7449   38.6368 C   0  0  0  0  0  0  0  0  0  0  0  0
   10.1881   49.5925   36.5636 C   0  0  0  0  0  0  0  0  0  0  0  0
   11.2633   47.7488   39.6684 N   0  0  0  0  0  4  0  0  0  0  0  0
   11.8479   49.9584   38.7791 C   0  0  0  0  0  0  0  0  0  0  0  0
   10.8741   50.7959   36.7335 C   0  0  0  0  0  0  0  0  0  0  0  0
   10.1496   47.0653   40.0995 O   0  0  0  0  0  1  0  0  0  0  0  0
   12.3277   47.6289   40.3100 O   0  0  0  0  0  0  0  0  0  0  0  0
   11.7113   50.9741   37.8325 C   0  0  0  0  0  0  0  0  0  0  0  0
    8.8077   40.1914   34.2085 O   0  0  0  0  0  0  0  0  0  0  0  0
   11.2370   40.7898   33.3680 O   0  0  0  0  0  0  0  0  0  0  0  0
   10.9153   40.6882   31.9949 C   0  0  0  0  0  0  0  0  0  0  0  0
   11.5260   39.3871   31.4365 C   0  0  0  0  0  0  0  0  0  0  0  0
   12.7491   39.0893   32.0819 O   0  0  0  0  0  0  0  0  0  0  0  0
   10.6123   38.1893   31.6461 C   0  0  0  0  0  0  0  0  0  0  0  0
   12.9373   37.6827   32.0301 C   0  0  0  0  0  0  0  0  0  0  0  0
    9.6149   38.0838   30.6538 O   0  0  0  0  0  0  0  0  0  0  0  0
   11.5793   37.0136   31.7014 C   0  0  0  0  0  0  0  0  0  0  0  0
   13.4906   37.2169   33.3242 N   0  0  0  0  0  0  0  0  0  0  0  0
   11.6216   36.3252   30.4725 O   0  0  0  0  0  0  0  0  0  0  0  0
   14.4764   36.3266   33.5731 C   0  0  0  0  0  0  0  0  0  0  0  0
   13.1182   37.6308   34.5694 C   0  0  0  0  0  0  0  0  0  0  0  0
   15.2066   35.6137   32.6740 N   0  0  0  0  0  0  0  0  0  0  0  0
   14.6736   36.2270   34.9185 C   0  0  0  0  0  0  0  0  0  0  0  0
   13.8229   37.0451   35.5787 N   0  0  0  0  0  0  0  0  0  0  0  0
   16.1640   34.7593   33.1547 C   0  0  0  0  0  0  0  0  0  0  0  0
   15.6519   35.3489   35.4132 C   0  0  0  0  0  0  0  0  0  0  0  0
   16.3795   34.6308   34.5042 N   0  0  0  0  0  0  0  0  0  0  0  0
   15.9006   35.1931   36.8090 N   0  0  0  0  0  0  0  0  0  0  0  0
    9.7844   45.0053   32.1580 H   0  0  0  0  0  0  0  0  0  0  0  0
   10.8097   46.9723   33.0972 H   0  0  0  0  0  0  0  0  0  0  0  0
   11.8825   45.7136   32.8979 H   0  0  0  0  0  0  0  0  0  0  0  0
    8.4076   46.6423   33.4218 H   0  0  0  0  0  0  0  0  0  0  0  0
    7.8126   44.9776   33.6712 H   0  0  0  0  0  0  0  0  0  0  0  0
    8.6344   47.2669   37.7676 H   0  0  0  0  0  0  0  0  0  0  0  0
   10.2175   46.3891   37.6628 H   0  0  0  0  0  0  0  0  0  0  0  0
    9.5444   49.4831   35.6999 H   0  0  0  0  0  0  0  0  0  0  0  0
   12.4791   50.1290   39.6422 H   0  0  0  0  0  0  0  0  0  0  0  0
   10.7575   51.5915   36.0089 H   0  0  0  0  0  0  0  0  0  0  0  0
   12.2440   51.9076   37.9602 H   0  0  0  0  0  0  0  0  0  0  0  0
    9.8252   40.7181   31.7580 H   0  0  0  0  0  0  0  0  0  0  0  0
   11.3826   41.5503   31.4728 H   0  0  0  0  0  0  0  0  0  0  0  0
   11.7291   39.5287   30.3504 H   0  0  0  0  0  0  0  0  0  0  0  0
   10.1139   38.2719   32.6379 H   0  0  0  0  0  0  0  0  0  0  0  0
   13.6727   37.4636   31.2241 H   0  0  0  0  0  0  0  0  0  0  0  0
   10.0535   38.1083   29.7639 H   0  0  0  0  0  0  0  0  0  0  0  0
   11.2644   36.3135   32.5107 H   0  0  0  0  0  0  0  0  0  0  0  0
   12.1549   35.5032   30.6314 H   0  0  0  0  0  0  0  0  0  0  0  0
   12.3362   38.3586   34.7450 H   0  0  0  0  0  0  0  0  0  0  0  0
   16.7574   34.1788   32.4619 H   0  0  0  0  0  0  0  0  0  0  0  0
   16.6366   34.5314   37.1415 H   0  0  0  0  0  0  0  0  0  0  0  0
   15.3533   35.7354   37.5138 H   0  0  0  0  0  0  0  0  0  0  0  0
  1  2  2  0
  1  3  1  0
  3  4  1  0
  4  5  1  0
  6  1  1  0
  7  6  1  0
  6  8  1  0
  8  9  1  0
  9 10  1  0
  9 11  2  0
 10 12  1  0
 12 13  1  0
 13 14  2  0
 15 13  1  0
 14 16  1  0
 14 17  1  0
 18 15  2  0
 16 19  1  0
 16 20  2  0
 17 21  2  0
 21 18  1  0
  4 22  2  0
  4 23  1  0
 24 23  1  0
 24 25  1  0
 25 26  1  0
 25 27  1  0
 26 28  1  0
 27 29  1  0
 27 30  1  0
 30 28  1  0
 28 31  1  0
 30 32  1  0
 33 31  1  0
 34 31  1  0
 35 33  2  0
 33 36  1  0
 37 34  2  0
 38 35  1  0
 36 39  2  0
 36 37  1  0
 40 38  2  0
 40 39  1  0
 39 41  1  0
  6 42  1  6
  7 43  1  0
  7 44  1  0
  8 45  1  0
  8 46  1  0
 12 47  1  0
 12 48  1  0
 15 49  1  0
 17 50  1  0
 18 51  1  0
 21 52  1  0
 24 53  1  0
 24 54  1  0
 25 55  1  0
 27 56  1  0
 28 57  1  0
 29 58  1  0
 30 59  1  0
 32 60  1  0
 34 61  1  0
 38 62  1  0
 41 63  1  0
 41 64  1  0
M  CHG  3   5  -1  16   1  19  -1
M  END
>  <EmbedRMS>  (388) 
0.08791653548050526

$$$$

     RDKit          3D

 64 67  0  0  0  0  0  0  0  0999 V2000
   10.2862   43.7717   33.8040 C   0  0  0  0  0  0  0  0  0  0  0  0
   11.4086   43.5884   34.3608 O   0  0  0  0  0  0  0  0  0  0  0  0
    9.3675   42.7307   33.6991 O   0  0  0  0  0  0  0  0  0  0  0  0
    9.8854   41.2341   34.2839 P   0  0  0  0  0  5  0  0  0  0  0  0
   10.3661   41.4701   35.8743 O   0  0  0  0  0  1  0  0  0  0  0  0
    9.9535   45.1142   33.2519 C   0  0  2  0  0  0  0  0  0  0  0  0
   11.0704   46.0336   33.4786 N   0  0  0  0  0  0  0  0  0  0  0  0
    8.6579   45.6634   33.8830 C   0  0  0  0  0  0  0  0  0  0  0  0
    8.7779   45.8426   35.3675 C   0  0  0  0  0  0  0  0  0  0  0  0
    9.4167   46.9775   35.8726 O   0  0  0  0  0  0  0  0  0  0  0  0
    8.3329   44.9548   36.1450 O   0  0  0  0  0  0  0  0  0  0  0  0
    9.5863   47.2086   37.2674 C   0  0  0  0  0  0  0  0  0  0  0  0
   10.2912   48.5249   37.4824 C   0  0  0  0  0  0  0  0  0  0  0  0
    9.7981   49.7457   36.9433 C   0  0  0  0  0  0  0  0  0  0  0  0
   11.4958   48.5333   38.2100 C   0  0  0  0  0  0  0  0  0  0  0  0
    8.5661   49.8136   36.2012 N   0  0  0  0  0  4  0  0  0  0  0  0
   10.5452   50.9235   37.1232 C   0  0  0  0  0  0  0  0  0  0  0  0
   12.2115   49.7173   38.3900 C   0  0  0  0  0  0  0  0  0  0  0  0
    8.4059   50.7681   35.2229 O   0  0  0  0  0  1  0  0  0  0  0  0
    7.5780   49.1294   36.5373 O   0  0  0  0  0  0  0  0  0  0  0  0
   11.7398   50.9088   37.8439 C   0  0  0  0  0  0  0  0  0  0  0  0
    8.8077   40.1914   34.2087 O   0  0  0  0  0  0  0  0  0  0  0  0
   11.2371   40.7897   33.3681 O   0  0  0  0  0  0  0  0  0  0  0  0
   10.9156   40.6883   31.9949 C   0  0  0  0  0  0  0  0  0  0  0  0
   11.5261   39.3871   31.4364 C   0  0  0  0  0  0  0  0  0  0  0  0
   12.7492   39.0893   32.0817 O   0  0  0  0  0  0  0  0  0  0  0  0
   10.6122   38.1894   31.6462 C   0  0  0  0  0  0  0  0  0  0  0  0
   12.9373   37.6827   32.0301 C   0  0  0  0  0  0  0  0  0  0  0  0
    9.6147   38.0841   30.6541 O   0  0  0  0  0  0  0  0  0  0  0  0
   11.5792   37.0137   31.7015 C   0  0  0  0  0  0  0  0  0  0  0  0
   13.4907   37.2170   33.3242 N   0  0  0  0  0  0  0  0  0  0  0  0
   11.6216   36.3251   30.4727 O   0  0  0  0  0  0  0  0  0  0  0  0
   14.4763   36.3267   33.5731 C   0  0  0  0  0  0  0  0  0  0  0  0
   13.1181   37.6309   34.5694 C   0  0  0  0  0  0  0  0  0  0  0  0
   15.2065   35.6137   32.6740 N   0  0  0  0  0  0  0  0  0  0  0  0
   14.6736   36.2271   34.9185 C   0  0  0  0  0  0  0  0  0  0  0  0
   13.8229   37.0452   35.5787 N   0  0  0  0  0  0  0  0  0  0  0  0
   16.1638   34.7592   33.1547 C   0  0  0  0  0  0  0  0  0  0  0  0
   15.6518   35.3489   35.4132 C   0  0  0  0  0  0  0  0  0  0  0  0
   16.3793   34.6307   34.5042 N   0  0  0  0  0  0  0  0  0  0  0  0
   15.9005   35.1931   36.8090 N   0  0  0  0  0  0  0  0  0  0  0  0
    9.7876   45.0049   32.1564 H   0  0  0  0  0  0  0  0  0  0  0  0
   11.8833   45.7144   32.9017 H   0  0  0  0  0  0  0  0  0  0  0  0
   10.8092   46.9725   33.0982 H   0  0  0  0  0  0  0  0  0  0  0  0
    8.4103   46.6445   33.4234 H   0  0  0  0  0  0  0  0  0  0  0  0
    7.8109   44.9788   33.6569 H   0  0  0  0  0  0  0  0  0  0  0  0
    8.6011   47.2233   37.7794 H   0  0  0  0  0  0  0  0  0  0  0  0
   10.1712   46.3677   37.7009 H   0  0  0  0  0  0  0  0  0  0  0  0
   11.8913   47.6181   38.6336 H   0  0  0  0  0  0  0  0  0  0  0  0
   10.1927   51.8633   36.7174 H   0  0  0  0  0  0  0  0  0  0  0  0
   13.1381   49.7090   38.9493 H   0  0  0  0  0  0  0  0  0  0  0  0
   12.2994   51.8251   37.9817 H   0  0  0  0  0  0  0  0  0  0  0  0
    9.8255   40.7185   31.7578 H   0  0  0  0  0  0  0  0  0  0  0  0
   11.3834   41.5502   31.4729 H   0  0  0  0  0  0  0  0  0  0  0  0
   11.7289   39.5285   30.3502 H   0  0  0  0  0  0  0  0  0  0  0  0
   10.1140   38.2722   32.6381 H   0  0  0  0  0  0  0  0  0  0  0  0
   13.6726   37.4633   31.2241 H   0  0  0  0  0  0  0  0  0  0  0  0
   10.0531   38.1077   29.7640 H   0  0  0  0  0  0  0  0  0  0  0  0
   11.2646   36.3137   32.5109 H   0  0  0  0  0  0  0  0  0  0  0  0
   12.1550   35.5032   30.6320 H   0  0  0  0  0  0  0  0  0  0  0  0
   12.3359   38.3585   34.7448 H   0  0  0  0  0  0  0  0  0  0  0  0
   16.7573   34.1788   32.4619 H   0  0  0  0  0  0  0  0  0  0  0  0
   16.6367   34.5315   37.1414 H   0  0  0  0  0  0  0  0  0  0  0  0
   15.3533   35.7355   37.5138 H   0  0  0  0  0  0  0  0  0  0  0  0
  1  2  2  0
  1  3  1  0
  3  4  1  0
  4  5  1  0
  6  1  1  0
  7  6  1  0
  6  8  1  0
  8  9  1  0
  9 10  1  0
  9 11  2  0
 10 12  1  0
 12 13  1  0
 13 14  2  0
 15 13  1  0
 14 16  1  0
 14 17  1  0
 18 15  2  0
 16 19  1  0
 16 20  2  0
 17 21  2  0
 21 18  1  0
  4 22  2  0
  4 23  1  0
 24 23  1  0
 24 25  1  0
 25 26  1  0
 25 27  1  0
 26 28  1  0
 27 29  1  0
 27 30  1  0
 30 28  1  0
 28 31  1  0
 30 32  1  0
 33 31  1  0
 34 31  1  0
 35 33  2  0
 33 36  1  0
 37 34  2  0
 38 35  1  0
 36 39  2  0
 36 37  1  0
 40 38  2  0
 40 39  1  0
 39 41  1  0
  6 42  1  6
  7 43  1  0
  7 44  1  0
  8 45  1  0
  8 46  1  0
 12 47  1  0
 12 48  1  0
 15 49  1  0
 17 50  1  0
 18 51  1  0
 21 52  1  0
 24 53  1  0
 24 54  1  0
 25 55  1  0
 27 56  1  0
 28 57  1  0
 29 58  1  0
 30 59  1  0
 32 60  1  0
 34 61  1  0
 38 62  1  0
 41 63  1  0
 41 64  1  0
M  CHG  3   5  -1  16   1  19  -1
M  END
>  <EmbedRMS>  (389) 
0.08788523641242237

$$$$

     RDKit          3D

 64 67  0  0  0  0  0  0  0  0999 V2000
   10.2884   43.7705   33.8004 C   0  0  0  0  0  0  0  0  0  0  0  0
   11.4104   43.5874   34.3578 O   0  0  0  0  0  0  0  0  0  0  0  0
    9.3688   42.7301   33.6971 O   0  0  0  0  0  0  0  0  0  0  0  0
    9.8856   41.2340   34.2841 P   0  0  0  0  0  5  0  0  0  0  0  0
   10.3647   41.4714   35.8748 O   0  0  0  0  0  1  0  0  0  0  0  0
    9.9520   45.1154   33.2558 C   0  0  2  0  0  0  0  0  0  0  0  0
   11.0693   46.0344   33.4799 N   0  0  0  0  0  0  0  0  0  0  0  0
    8.6606   45.6622   33.8983 C   0  0  0  0  0  0  0  0  0  0  0  0
    8.7960   45.8540   35.3804 C   0  0  0  0  0  0  0  0  0  0  0  0
    8.7630   44.7357   36.2207 O   0  0  0  0  0  0  0  0  0  0  0  0
    8.9724   47.0108   35.8500 O   0  0  0  0  0  0  0  0  0  0  0  0
    8.8165   44.8114   37.6428 C   0  0  0  0  0  0  0  0  0  0  0  0
    7.4772   45.2293   38.1985 C   0  0  0  0  0  0  0  0  0  0  0  0
    6.4060   44.3101   38.3618 C   0  0  0  0  0  0  0  0  0  0  0  0
    7.2953   46.5718   38.5772 C   0  0  0  0  0  0  0  0  0  0  0  0
    6.5241   42.9270   37.9791 N   0  0  0  0  0  4  0  0  0  0  0  0
    5.2000   44.7606   38.9305 C   0  0  0  0  0  0  0  0  0  0  0  0
    6.0856   47.0001   39.1247 C   0  0  0  0  0  0  0  0  0  0  0  0
    7.1702   42.5703   36.8186 O   0  0  0  0  0  1  0  0  0  0  0  0
    5.8987   42.0491   38.6092 O   0  0  0  0  0  0  0  0  0  0  0  0
    5.0415   46.0955   39.3049 C   0  0  0  0  0  0  0  0  0  0  0  0
    8.8077   40.1916   34.2085 O   0  0  0  0  0  0  0  0  0  0  0  0
   11.2383   40.7889   33.3695 O   0  0  0  0  0  0  0  0  0  0  0  0
   10.9197   40.6893   31.9955 C   0  0  0  0  0  0  0  0  0  0  0  0
   11.5172   39.3801   31.4398 C   0  0  0  0  0  0  0  0  0  0  0  0
   12.7480   39.0860   32.0732 O   0  0  0  0  0  0  0  0  0  0  0  0
   10.6031   38.1891   31.6667 C   0  0  0  0  0  0  0  0  0  0  0  0
   12.9336   37.6795   32.0279 C   0  0  0  0  0  0  0  0  0  0  0  0
    9.6397   38.0778   30.6457 O   0  0  0  0  0  0  0  0  0  0  0  0
   11.5739   37.0154   31.7057 C   0  0  0  0  0  0  0  0  0  0  0  0
   13.4903   37.2177   33.3231 N   0  0  0  0  0  0  0  0  0  0  0  0
   11.6210   36.3376   30.4695 O   0  0  0  0  0  0  0  0  0  0  0  0
   14.4761   36.3273   33.5725 C   0  0  0  0  0  0  0  0  0  0  0  0
   13.1178   37.6316   34.5684 C   0  0  0  0  0  0  0  0  0  0  0  0
   15.2063   35.6139   32.6737 N   0  0  0  0  0  0  0  0  0  0  0  0
   14.6733   36.2277   34.9180 C   0  0  0  0  0  0  0  0  0  0  0  0
   13.8225   37.0459   35.5779 N   0  0  0  0  0  0  0  0  0  0  0  0
   16.1636   34.7594   33.1546 C   0  0  0  0  0  0  0  0  0  0  0  0
   15.6515   35.3494   35.4129 C   0  0  0  0  0  0  0  0  0  0  0  0
   16.3791   34.6311   34.5041 N   0  0  0  0  0  0  0  0  0  0  0  0
   15.9001   35.1935   36.8088 N   0  0  0  0  0  0  0  0  0  0  0  0
    9.7789   45.0102   32.1610 H   0  0  0  0  0  0  0  0  0  0  0  0
   11.8795   45.7175   32.8977 H   0  0  0  0  0  0  0  0  0  0  0  0
   10.8052   46.9741   33.1034 H   0  0  0  0  0  0  0  0  0  0  0  0
    7.8187   44.9632   33.7024 H   0  0  0  0  0  0  0  0  0  0  0  0
    8.3927   46.6300   33.4207 H   0  0  0  0  0  0  0  0  0  0  0  0
    9.6241   45.5090   37.9569 H   0  0  0  0  0  0  0  0  0  0  0  0
    9.0942   43.8159   38.0478 H   0  0  0  0  0  0  0  0  0  0  0  0
    8.0972   47.2900   38.4592 H   0  0  0  0  0  0  0  0  0  0  0  0
    4.3716   44.0774   39.0694 H   0  0  0  0  0  0  0  0  0  0  0  0
    5.9599   48.0352   39.4151 H   0  0  0  0  0  0  0  0  0  0  0  0
    4.1053   46.4295   39.7333 H   0  0  0  0  0  0  0  0  0  0  0  0
   11.4019   41.5437   31.4743 H   0  0  0  0  0  0  0  0  0  0  0  0
    9.8320   40.7398   31.7551 H   0  0  0  0  0  0  0  0  0  0  0  0
   11.6981   39.5046   30.3472 H   0  0  0  0  0  0  0  0  0  0  0  0
   10.1090   38.2631   32.6650 H   0  0  0  0  0  0  0  0  0  0  0  0
   13.6656   37.4539   31.2207 H   0  0  0  0  0  0  0  0  0  0  0  0
    8.8967   38.6902   30.8851 H   0  0  0  0  0  0  0  0  0  0  0  0
   11.2846   36.3060   32.5175 H   0  0  0  0  0  0  0  0  0  0  0  0
   10.8523   35.7095   30.4590 H   0  0  0  0  0  0  0  0  0  0  0  0
   12.3353   38.3588   34.7439 H   0  0  0  0  0  0  0  0  0  0  0  0
   16.7570   34.1788   32.4619 H   0  0  0  0  0  0  0  0  0  0  0  0
   15.3529   35.7359   37.5136 H   0  0  0  0  0  0  0  0  0  0  0  0
   16.6360   34.5317   37.1414 H   0  0  0  0  0  0  0  0  0  0  0  0
  1  2  2  0
  1  3  1  0
  3  4  1  0
  4  5  1  0
  6  1  1  0
  7  6  1  0
  6  8  1  0
  8  9  1  0
  9 10  1  0
  9 11  2  0
 10 12  1  0
 12 13  1  0
 13 14  2  0
 15 13  1  0
 14 16  1  0
 14 17  1  0
 18 15  2  0
 16 19  1  0
 16 20  2  0
 17 21  2  0
 21 18  1  0
  4 22  2  0
  4 23  1  0
 24 23  1  0
 24 25  1  0
 25 26  1  0
 25 27  1  0
 26 28  1  0
 27 29  1  0
 27 30  1  0
 30 28  1  0
 28 31  1  0
 30 32  1  0
 33 31  1  0
 34 31  1  0
 35 33  2  0
 33 36  1  0
 37 34  2  0
 38 35  1  0
 36 39  2  0
 36 37  1  0
 40 38  2  0
 40 39  1  0
 39 41  1  0
  6 42  1  6
  7 43  1  0
  7 44  1  0
  8 45  1  0
  8 46  1  0
 12 47  1  0
 12 48  1  0
 15 49  1  0
 17 50  1  0
 18 51  1  0
 21 52  1  0
 24 53  1  0
 24 54  1  0
 25 55  1  0
 27 56  1  0
 28 57  1  0
 29 58  1  0
 30 59  1  0
 32 60  1  0
 34 61  1  0
 38 62  1  0
 41 63  1  0
 41 64  1  0
M  CHG  3   5  -1  16   1  19  -1
M  END
>  <EmbedRMS>  (390) 
0.08950276725346971

$$$$

     RDKit          3D

 64 67  0  0  0  0  0  0  0  0999 V2000
   10.2842   43.7744   33.8071 C   0  0  0  0  0  0  0  0  0  0  0  0
   11.4068   43.5904   34.3635 O   0  0  0  0  0  0  0  0  0  0  0  0
    9.3677   42.7313   33.6993 O   0  0  0  0  0  0  0  0  0  0  0  0
    9.8859   41.2343   34.2835 P   0  0  0  0  0  5  0  0  0  0  0  0
   10.3666   41.4695   35.8740 O   0  0  0  0  0  1  0  0  0  0  0  0
    9.9496   45.1159   33.2538 C   0  0  2  0  0  0  0  0  0  0  0  0
   11.0752   46.0280   33.4737 N   0  0  0  0  0  0  0  0  0  0  0  0
    8.6759   45.6526   33.9369 C   0  0  0  0  0  0  0  0  0  0  0  0
    8.1883   46.9069   33.2807 C   0  0  0  0  0  0  0  0  0  0  0  0
    7.6128   46.8371   32.0068 O   0  0  0  0  0  0  0  0  0  0  0  0
    8.3292   48.0165   33.8643 O   0  0  0  0  0  0  0  0  0  0  0  0
    7.2397   47.9927   31.2566 C   0  0  0  0  0  0  0  0  0  0  0  0
    8.4571   48.7566   30.7782 C   0  0  0  0  0  0  0  0  0  0  0  0
    8.4576   50.1724   30.6632 C   0  0  0  0  0  0  0  0  0  0  0  0
    9.6173   48.0423   30.4205 C   0  0  0  0  0  0  0  0  0  0  0  0
    7.2746   50.9537   30.9006 N   0  0  0  0  0  4  0  0  0  0  0  0
    9.6422   50.8310   30.2905 C   0  0  0  0  0  0  0  0  0  0  0  0
   10.7777   48.7140   30.0347 C   0  0  0  0  0  0  0  0  0  0  0  0
    7.3838   52.2213   31.4247 O   0  0  0  0  0  1  0  0  0  0  0  0
    6.1739   50.5860   30.4408 O   0  0  0  0  0  0  0  0  0  0  0  0
   10.7940   50.1062   29.9821 C   0  0  0  0  0  0  0  0  0  0  0  0
    8.8082   40.1915   34.2082 O   0  0  0  0  0  0  0  0  0  0  0  0
   11.2372   40.7910   33.3668 O   0  0  0  0  0  0  0  0  0  0  0  0
   10.9138   40.6861   31.9943 C   0  0  0  0  0  0  0  0  0  0  0  0
   11.5171   39.3797   31.4408 C   0  0  0  0  0  0  0  0  0  0  0  0
   12.7488   39.0886   32.0761 O   0  0  0  0  0  0  0  0  0  0  0  0
   10.6052   38.1877   31.6659 C   0  0  0  0  0  0  0  0  0  0  0  0
   12.9412   37.6828   32.0278 C   0  0  0  0  0  0  0  0  0  0  0  0
    9.6358   38.0930   30.6503 O   0  0  0  0  0  0  0  0  0  0  0  0
   11.5827   37.0179   31.6936 C   0  0  0  0  0  0  0  0  0  0  0  0
   13.4909   37.2176   33.3239 N   0  0  0  0  0  0  0  0  0  0  0  0
   11.6140   36.3180   30.4675 O   0  0  0  0  0  0  0  0  0  0  0  0
   14.4763   36.3270   33.5733 C   0  0  0  0  0  0  0  0  0  0  0  0
   13.1179   37.6316   34.5689 C   0  0  0  0  0  0  0  0  0  0  0  0
   15.2067   35.6140   32.6743 N   0  0  0  0  0  0  0  0  0  0  0  0
   14.6731   36.2272   34.9186 C   0  0  0  0  0  0  0  0  0  0  0  0
   13.8223   37.0456   35.5785 N   0  0  0  0  0  0  0  0  0  0  0  0
   16.1639   34.7595   33.1551 C   0  0  0  0  0  0  0  0  0  0  0  0
   15.6515   35.3491   35.4134 C   0  0  0  0  0  0  0  0  0  0  0  0
   16.3793   34.6310   34.5045 N   0  0  0  0  0  0  0  0  0  0  0  0
   15.9002   35.1933   36.8093 N   0  0  0  0  0  0  0  0  0  0  0  0
    9.7672   45.0022   32.1611 H   0  0  0  0  0  0  0  0  0  0  0  0
   11.8932   45.6816   32.9200 H   0  0  0  0  0  0  0  0  0  0  0  0
   10.8435   46.9583   33.0569 H   0  0  0  0  0  0  0  0  0  0  0  0
    8.8748   45.8403   35.0155 H   0  0  0  0  0  0  0  0  0  0  0  0
    7.8615   44.8988   33.8690 H   0  0  0  0  0  0  0  0  0  0  0  0
    6.6542   47.6691   30.3710 H   0  0  0  0  0  0  0  0  0  0  0  0
    6.5854   48.6241   31.8938 H   0  0  0  0  0  0  0  0  0  0  0  0
    9.6320   46.9604   30.4560 H   0  0  0  0  0  0  0  0  0  0  0  0
    9.6660   51.9105   30.2106 H   0  0  0  0  0  0  0  0  0  0  0  0
   11.6675   48.1530   29.7797 H   0  0  0  0  0  0  0  0  0  0  0  0
   11.6964   50.6251   29.6854 H   0  0  0  0  0  0  0  0  0  0  0  0
   11.3858   41.5433   31.4683 H   0  0  0  0  0  0  0  0  0  0  0  0
    9.8237   40.7211   31.7578 H   0  0  0  0  0  0  0  0  0  0  0  0
   11.6995   39.5063   30.3486 H   0  0  0  0  0  0  0  0  0  0  0  0
   10.1121   38.2723   32.6631 H   0  0  0  0  0  0  0  0  0  0  0  0
   13.6816   37.4631   31.2269 H   0  0  0  0  0  0  0  0  0  0  0  0
    9.0036   37.3828   30.9349 H   0  0  0  0  0  0  0  0  0  0  0  0
   11.2846   36.3041   32.4928 H   0  0  0  0  0  0  0  0  0  0  0  0
   11.8849   36.9590   29.7588 H   0  0  0  0  0  0  0  0  0  0  0  0
   12.3363   38.3599   34.7441 H   0  0  0  0  0  0  0  0  0  0  0  0
   16.7574   34.1790   32.4623 H   0  0  0  0  0  0  0  0  0  0  0  0
   15.3529   35.7355   37.5141 H   0  0  0  0  0  0  0  0  0  0  0  0
   16.6363   34.5317   37.1418 H   0  0  0  0  0  0  0  0  0  0  0  0
  1  2  2  0
  1  3  1  0
  3  4  1  0
  4  5  1  0
  6  1  1  0
  7  6  1  0
  6  8  1  0
  8  9  1  0
  9 10  1  0
  9 11  2  0
 10 12  1  0
 12 13  1  0
 13 14  2  0
 15 13  1  0
 14 16  1  0
 14 17  1  0
 18 15  2  0
 16 19  1  0
 16 20  2  0
 17 21  2  0
 21 18  1  0
  4 22  2  0
  4 23  1  0
 24 23  1  0
 24 25  1  0
 25 26  1  0
 25 27  1  0
 26 28  1  0
 27 29  1  0
 27 30  1  0
 30 28  1  0
 28 31  1  0
 30 32  1  0
 33 31  1  0
 34 31  1  0
 35 33  2  0
 33 36  1  0
 37 34  2  0
 38 35  1  0
 36 39  2  0
 36 37  1  0
 40 38  2  0
 40 39  1  0
 39 41  1  0
  6 42  1  6
  7 43  1  0
  7 44  1  0
  8 45  1  0
  8 46  1  0
 12 47  1  0
 12 48  1  0
 15 49  1  0
 17 50  1  0
 18 51  1  0
 21 52  1  0
 24 53  1  0
 24 54  1  0
 25 55  1  0
 27 56  1  0
 28 57  1  0
 29 58  1  0
 30 59  1  0
 32 60  1  0
 34 61  1  0
 38 62  1  0
 41 63  1  0
 41 64  1  0
M  CHG  3   5  -1  16   1  19  -1
M  END
>  <EmbedRMS>  (391) 
0.08789581994622442

$$$$

     RDKit          3D

 64 67  0  0  0  0  0  0  0  0999 V2000
   10.2809   43.7767   33.8097 C   0  0  0  0  0  0  0  0  0  0  0  0
   11.4069   43.5931   34.3594 O   0  0  0  0  0  0  0  0  0  0  0  0
    9.3733   42.7276   33.6936 O   0  0  0  0  0  0  0  0  0  0  0  0
    9.8874   41.2329   34.2838 P   0  0  0  0  0  5  0  0  0  0  0  0
   10.3649   41.4710   35.8747 O   0  0  0  0  0  1  0  0  0  0  0  0
    9.9456   45.1214   33.2568 C   0  0  2  0  0  0  0  0  0  0  0  0
   11.0772   46.0244   33.4750 N   0  0  0  0  0  0  0  0  0  0  0  0
    8.6635   45.7035   33.8968 C   0  0  0  0  0  0  0  0  0  0  0  0
    7.4322   44.9784   33.4462 C   0  0  0  0  0  0  0  0  0  0  0  0
    6.9618   43.8993   34.1981 O   0  0  0  0  0  0  0  0  0  0  0  0
    6.8643   45.3111   32.3702 O   0  0  0  0  0  0  0  0  0  0  0  0
    5.9082   43.0455   33.7613 C   0  0  0  0  0  0  0  0  0  0  0  0
    5.8260   41.8121   34.6329 C   0  0  0  0  0  0  0  0  0  0  0  0
    5.3412   40.5756   34.1272 C   0  0  0  0  0  0  0  0  0  0  0  0
    6.2405   41.8835   35.9782 C   0  0  0  0  0  0  0  0  0  0  0  0
    4.8148   40.4540   32.7944 N   0  0  0  0  0  4  0  0  0  0  0  0
    5.3707   39.4371   34.9513 C   0  0  0  0  0  0  0  0  0  0  0  0
    6.2441   40.7447   36.7845 C   0  0  0  0  0  0  0  0  0  0  0  0
    4.9446   39.2673   32.1102 O   0  0  0  0  0  1  0  0  0  0  0  0
    4.0746   41.3418   32.3229 O   0  0  0  0  0  0  0  0  0  0  0  0
    5.8218   39.5217   36.2686 C   0  0  0  0  0  0  0  0  0  0  0  0
    8.8091   40.1910   34.2077 O   0  0  0  0  0  0  0  0  0  0  0  0
   11.2386   40.7876   33.3689 O   0  0  0  0  0  0  0  0  0  0  0  0
   10.9168   40.6884   31.9957 C   0  0  0  0  0  0  0  0  0  0  0  0
   11.5252   39.3870   31.4363 C   0  0  0  0  0  0  0  0  0  0  0  0
   12.7488   39.0876   32.0798 O   0  0  0  0  0  0  0  0  0  0  0  0
   10.6099   38.1909   31.6472 C   0  0  0  0  0  0  0  0  0  0  0  0
   12.9347   37.6804   32.0291 C   0  0  0  0  0  0  0  0  0  0  0  0
    9.6123   38.0875   30.6550 O   0  0  0  0  0  0  0  0  0  0  0  0
   11.5764   37.0132   31.7026 C   0  0  0  0  0  0  0  0  0  0  0  0
   13.4900   37.2164   33.3236 N   0  0  0  0  0  0  0  0  0  0  0  0
   11.6318   36.3230   30.4741 O   0  0  0  0  0  0  0  0  0  0  0  0
   14.4762   36.3266   33.5727 C   0  0  0  0  0  0  0  0  0  0  0  0
   13.1178   37.6306   34.5688 C   0  0  0  0  0  0  0  0  0  0  0  0
   15.2065   35.6135   32.6739 N   0  0  0  0  0  0  0  0  0  0  0  0
   14.6736   36.2272   34.9182 C   0  0  0  0  0  0  0  0  0  0  0  0
   13.8227   37.0453   35.5783 N   0  0  0  0  0  0  0  0  0  0  0  0
   16.1639   34.7592   33.1547 C   0  0  0  0  0  0  0  0  0  0  0  0
   15.6518   35.3491   35.4131 C   0  0  0  0  0  0  0  0  0  0  0  0
   16.3794   34.6309   34.5042 N   0  0  0  0  0  0  0  0  0  0  0  0
   15.9004   35.1933   36.8089 N   0  0  0  0  0  0  0  0  0  0  0  0
    9.7917   45.0118   32.1599 H   0  0  0  0  0  0  0  0  0  0  0  0
   10.9082   46.9076   32.9403 H   0  0  0  0  0  0  0  0  0  0  0  0
   11.1319   46.2814   34.4886 H   0  0  0  0  0  0  0  0  0  0  0  0
    8.7345   45.6566   35.0057 H   0  0  0  0  0  0  0  0  0  0  0  0
    8.5608   46.7744   33.6158 H   0  0  0  0  0  0  0  0  0  0  0  0
    6.1194   42.7466   32.7119 H   0  0  0  0  0  0  0  0  0  0  0  0
    4.9433   43.5942   33.8017 H   0  0  0  0  0  0  0  0  0  0  0  0
    6.5805   42.8185   36.4053 H   0  0  0  0  0  0  0  0  0  0  0  0
    5.0191   38.4830   34.5794 H   0  0  0  0  0  0  0  0  0  0  0  0
    6.5807   40.8104   37.8111 H   0  0  0  0  0  0  0  0  0  0  0  0
    5.8300   38.6392   36.8953 H   0  0  0  0  0  0  0  0  0  0  0  0
    9.8266   40.7203   31.7584 H   0  0  0  0  0  0  0  0  0  0  0  0
   11.3856   41.5503   31.4746 H   0  0  0  0  0  0  0  0  0  0  0  0
   11.7269   39.5287   30.3500 H   0  0  0  0  0  0  0  0  0  0  0  0
   10.1121   38.2733   32.6392 H   0  0  0  0  0  0  0  0  0  0  0  0
   13.6683   37.4584   31.2223 H   0  0  0  0  0  0  0  0  0  0  0  0
   10.0508   38.1111   29.7650 H   0  0  0  0  0  0  0  0  0  0  0  0
   11.2798   36.3128   32.5196 H   0  0  0  0  0  0  0  0  0  0  0  0
   10.8619   35.6962   30.4645 H   0  0  0  0  0  0  0  0  0  0  0  0
   12.3353   38.3579   34.7444 H   0  0  0  0  0  0  0  0  0  0  0  0
   16.7574   34.1787   32.4620 H   0  0  0  0  0  0  0  0  0  0  0  0
   16.6363   34.5316   37.1415 H   0  0  0  0  0  0  0  0  0  0  0  0
   15.3531   35.7356   37.5138 H   0  0  0  0  0  0  0  0  0  0  0  0
  1  2  2  0
  1  3  1  0
  3  4  1  0
  4  5  1  0
  6  1  1  0
  7  6  1  0
  6  8  1  0
  8  9  1  0
  9 10  1  0
  9 11  2  0
 10 12  1  0
 12 13  1  0
 13 14  2  0
 15 13  1  0
 14 16  1  0
 14 17  1  0
 18 15  2  0
 16 19  1  0
 16 20  2  0
 17 21  2  0
 21 18  1  0
  4 22  2  0
  4 23  1  0
 24 23  1  0
 24 25  1  0
 25 26  1  0
 25 27  1  0
 26 28  1  0
 27 29  1  0
 27 30  1  0
 30 28  1  0
 28 31  1  0
 30 32  1  0
 33 31  1  0
 34 31  1  0
 35 33  2  0
 33 36  1  0
 37 34  2  0
 38 35  1  0
 36 39  2  0
 36 37  1  0
 40 38  2  0
 40 39  1  0
 39 41  1  0
  6 42  1  6
  7 43  1  0
  7 44  1  0
  8 45  1  0
  8 46  1  0
 12 47  1  0
 12 48  1  0
 15 49  1  0
 17 50  1  0
 18 51  1  0
 21 52  1  0
 24 53  1  0
 24 54  1  0
 25 55  1  0
 27 56  1  0
 28 57  1  0
 29 58  1  0
 30 59  1  0
 32 60  1  0
 34 61  1  0
 38 62  1  0
 41 63  1  0
 41 64  1  0
M  CHG  3   5  -1  16   1  19  -1
M  END
>  <EmbedRMS>  (392) 
0.08866181859518465

$$$$

     RDKit          3D

 64 67  0  0  0  0  0  0  0  0999 V2000
   10.2844   43.7741   33.8072 C   0  0  0  0  0  0  0  0  0  0  0  0
   11.4068   43.5902   34.3639 O   0  0  0  0  0  0  0  0  0  0  0  0
    9.3678   42.7311   33.6990 O   0  0  0  0  0  0  0  0  0  0  0  0
    9.8862   41.2340   34.2827 P   0  0  0  0  0  5  0  0  0  0  0  0
   10.3670   41.4691   35.8732 O   0  0  0  0  0  1  0  0  0  0  0  0
    9.9501   45.1154   33.2536 C   0  0  2  0  0  0  0  0  0  0  0  0
   11.0749   46.0288   33.4734 N   0  0  0  0  0  0  0  0  0  0  0  0
    8.6752   45.6518   33.9354 C   0  0  0  0  0  0  0  0  0  0  0  0
    8.2026   46.9159   33.2882 C   0  0  0  0  0  0  0  0  0  0  0  0
    7.7161   46.8726   31.9776 O   0  0  0  0  0  0  0  0  0  0  0  0
    8.2733   48.0074   33.9159 O   0  0  0  0  0  0  0  0  0  0  0  0
    7.5043   48.0342   31.1790 C   0  0  0  0  0  0  0  0  0  0  0  0
    8.8272   48.6230   30.7497 C   0  0  0  0  0  0  0  0  0  0  0  0
    9.5825   48.0855   29.6727 C   0  0  0  0  0  0  0  0  0  0  0  0
    9.3226   49.7407   31.4459 C   0  0  0  0  0  0  0  0  0  0  0  0
    9.1372   46.9369   28.9275 N   0  0  0  0  0  4  0  0  0  0  0  0
   10.7934   48.7051   29.3112 C   0  0  0  0  0  0  0  0  0  0  0  0
   10.5332   50.3295   31.0801 C   0  0  0  0  0  0  0  0  0  0  0  0
    8.5563   45.8657   29.5648 O   0  0  0  0  0  1  0  0  0  0  0  0
    9.4239   46.8285   27.7172 O   0  0  0  0  0  0  0  0  0  0  0  0
   11.2655   49.8150   30.0127 C   0  0  0  0  0  0  0  0  0  0  0  0
    8.8082   40.1914   34.2078 O   0  0  0  0  0  0  0  0  0  0  0  0
   11.2374   40.7905   33.3654 O   0  0  0  0  0  0  0  0  0  0  0  0
   10.9138   40.6843   31.9928 C   0  0  0  0  0  0  0  0  0  0  0  0
   11.5176   39.3773   31.4393 C   0  0  0  0  0  0  0  0  0  0  0  0
   12.7478   39.0868   32.0755 O   0  0  0  0  0  0  0  0  0  0  0  0
   10.6069   38.1852   31.6656 C   0  0  0  0  0  0  0  0  0  0  0  0
   12.9372   37.6810   32.0290 C   0  0  0  0  0  0  0  0  0  0  0  0
    9.6404   38.0882   30.6475 O   0  0  0  0  0  0  0  0  0  0  0  0
   11.5789   37.0134   31.7045 C   0  0  0  0  0  0  0  0  0  0  0  0
   13.4915   37.2182   33.3239 N   0  0  0  0  0  0  0  0  0  0  0  0
   11.6125   36.3388   30.4673 O   0  0  0  0  0  0  0  0  0  0  0  0
   14.4766   36.3272   33.5730 C   0  0  0  0  0  0  0  0  0  0  0  0
   13.1184   37.6317   34.5690 C   0  0  0  0  0  0  0  0  0  0  0  0
   15.2066   35.6139   32.6740 N   0  0  0  0  0  0  0  0  0  0  0  0
   14.6735   36.2274   34.9184 C   0  0  0  0  0  0  0  0  0  0  0  0
   13.8227   37.0455   35.5785 N   0  0  0  0  0  0  0  0  0  0  0  0
   16.1638   34.7593   33.1548 C   0  0  0  0  0  0  0  0  0  0  0  0
   15.6517   35.3491   35.4132 C   0  0  0  0  0  0  0  0  0  0  0  0
   16.3792   34.6308   34.5043 N   0  0  0  0  0  0  0  0  0  0  0  0
   15.9004   35.1932   36.8090 N   0  0  0  0  0  0  0  0  0  0  0  0
    9.7692   45.0020   32.1604 H   0  0  0  0  0  0  0  0  0  0  0  0
   10.8463   46.9547   33.0446 H   0  0  0  0  0  0  0  0  0  0  0  0
   11.8968   45.6772   32.9288 H   0  0  0  0  0  0  0  0  0  0  0  0
    8.8694   45.8267   35.0171 H   0  0  0  0  0  0  0  0  0  0  0  0
    7.8567   44.9041   33.8531 H   0  0  0  0  0  0  0  0  0  0  0  0
    6.9107   47.7562   30.2831 H   0  0  0  0  0  0  0  0  0  0  0  0
    6.8928   48.7738   31.7414 H   0  0  0  0  0  0  0  0  0  0  0  0
    8.7661   50.1650   32.2723 H   0  0  0  0  0  0  0  0  0  0  0  0
   11.3840   48.3158   28.4915 H   0  0  0  0  0  0  0  0  0  0  0  0
   10.9019   51.1901   31.6232 H   0  0  0  0  0  0  0  0  0  0  0  0
   12.2030   50.2755   29.7288 H   0  0  0  0  0  0  0  0  0  0  0  0
   11.3852   41.5414   31.4660 H   0  0  0  0  0  0  0  0  0  0  0  0
    9.8236   40.7189   31.7567 H   0  0  0  0  0  0  0  0  0  0  0  0
   11.7008   39.5016   30.3469 H   0  0  0  0  0  0  0  0  0  0  0  0
   10.1098   38.2752   32.6605 H   0  0  0  0  0  0  0  0  0  0  0  0
   13.6713   37.4590   31.2227 H   0  0  0  0  0  0  0  0  0  0  0  0
    9.0032   37.3836   30.9352 H   0  0  0  0  0  0  0  0  0  0  0  0
   11.2705   36.3048   32.5088 H   0  0  0  0  0  0  0  0  0  0  0  0
   12.1442   35.5136   30.6141 H   0  0  0  0  0  0  0  0  0  0  0  0
   12.3362   38.3592   34.7444 H   0  0  0  0  0  0  0  0  0  0  0  0
   16.7571   34.1787   32.4620 H   0  0  0  0  0  0  0  0  0  0  0  0
   15.3531   35.7355   37.5139 H   0  0  0  0  0  0  0  0  0  0  0  0
   16.6363   34.5314   37.1416 H   0  0  0  0  0  0  0  0  0  0  0  0
  1  2  2  0
  1  3  1  0
  3  4  1  0
  4  5  1  0
  6  1  1  0
  7  6  1  0
  6  8  1  0
  8  9  1  0
  9 10  1  0
  9 11  2  0
 10 12  1  0
 12 13  1  0
 13 14  2  0
 15 13  1  0
 14 16  1  0
 14 17  1  0
 18 15  2  0
 16 19  1  0
 16 20  2  0
 17 21  2  0
 21 18  1  0
  4 22  2  0
  4 23  1  0
 24 23  1  0
 24 25  1  0
 25 26  1  0
 25 27  1  0
 26 28  1  0
 27 29  1  0
 27 30  1  0
 30 28  1  0
 28 31  1  0
 30 32  1  0
 33 31  1  0
 34 31  1  0
 35 33  2  0
 33 36  1  0
 37 34  2  0
 38 35  1  0
 36 39  2  0
 36 37  1  0
 40 38  2  0
 40 39  1  0
 39 41  1  0
  6 42  1  6
  7 43  1  0
  7 44  1  0
  8 45  1  0
  8 46  1  0
 12 47  1  0
 12 48  1  0
 15 49  1  0
 17 50  1  0
 18 51  1  0
 21 52  1  0
 24 53  1  0
 24 54  1  0
 25 55  1  0
 27 56  1  0
 28 57  1  0
 29 58  1  0
 30 59  1  0
 32 60  1  0
 34 61  1  0
 38 62  1  0
 41 63  1  0
 41 64  1  0
M  CHG  3   5  -1  16   1  19  -1
M  END
>  <EmbedRMS>  (393) 
0.08887772523478164

$$$$

     RDKit          3D

 64 67  0  0  0  0  0  0  0  0999 V2000
   10.2874   43.7710   33.8018 C   0  0  0  0  0  0  0  0  0  0  0  0
   11.4096   43.5877   34.3589 O   0  0  0  0  0  0  0  0  0  0  0  0
    9.3681   42.7304   33.6980 O   0  0  0  0  0  0  0  0  0  0  0  0
    9.8853   41.2343   34.2846 P   0  0  0  0  0  5  0  0  0  0  0  0
   10.3645   41.4713   35.8753 O   0  0  0  0  0  1  0  0  0  0  0  0
    9.9517   45.1157   33.2561 C   0  0  2  0  0  0  0  0  0  0  0  0
   11.0706   46.0335   33.4780 N   0  0  0  0  0  0  0  0  0  0  0  0
    8.6627   45.6646   33.9012 C   0  0  0  0  0  0  0  0  0  0  0  0
    8.7968   45.8316   35.3858 C   0  0  0  0  0  0  0  0  0  0  0  0
    8.5708   44.7312   36.2221 O   0  0  0  0  0  0  0  0  0  0  0  0
    9.1408   46.9473   35.8633 O   0  0  0  0  0  0  0  0  0  0  0  0
    8.7335   44.7688   37.6404 C   0  0  0  0  0  0  0  0  0  0  0  0
    7.4475   45.1057   38.3707 C   0  0  0  0  0  0  0  0  0  0  0  0
    7.3050   44.8212   39.7568 C   0  0  0  0  0  0  0  0  0  0  0  0
    6.3673   45.7008   37.6849 C   0  0  0  0  0  0  0  0  0  0  0  0
    8.3800   44.2533   40.5280 N   0  0  0  0  0  4  0  0  0  0  0  0
    6.0807   45.0934   40.3943 C   0  0  0  0  0  0  0  0  0  0  0  0
    5.1679   45.9770   38.3424 C   0  0  0  0  0  0  0  0  0  0  0  0
    9.6742   44.6842   40.3501 O   0  0  0  0  0  1  0  0  0  0  0  0
    8.1289   43.4896   41.4832 O   0  0  0  0  0  0  0  0  0  0  0  0
    5.0225   45.6682   39.6920 C   0  0  0  0  0  0  0  0  0  0  0  0
    8.8079   40.1914   34.2085 O   0  0  0  0  0  0  0  0  0  0  0  0
   11.2380   40.7899   33.3703 O   0  0  0  0  0  0  0  0  0  0  0  0
   10.9190   40.6904   31.9966 C   0  0  0  0  0  0  0  0  0  0  0  0
   11.5176   39.3824   31.4413 C   0  0  0  0  0  0  0  0  0  0  0  0
   12.7496   39.0892   32.0755 O   0  0  0  0  0  0  0  0  0  0  0  0
   10.6036   38.1899   31.6660 C   0  0  0  0  0  0  0  0  0  0  0  0
   12.9401   37.6833   32.0276 C   0  0  0  0  0  0  0  0  0  0  0  0
    9.6377   38.0786   30.6474 O   0  0  0  0  0  0  0  0  0  0  0  0
   11.5803   37.0204   31.6937 C   0  0  0  0  0  0  0  0  0  0  0  0
   13.4902   37.2177   33.3237 N   0  0  0  0  0  0  0  0  0  0  0  0
   11.6117   36.3193   30.4680 O   0  0  0  0  0  0  0  0  0  0  0  0
   14.4759   36.3271   33.5731 C   0  0  0  0  0  0  0  0  0  0  0  0
   13.1176   37.6317   34.5688 C   0  0  0  0  0  0  0  0  0  0  0  0
   15.2064   35.6141   32.6742 N   0  0  0  0  0  0  0  0  0  0  0  0
   14.6729   36.2274   34.9185 C   0  0  0  0  0  0  0  0  0  0  0  0
   13.8221   37.0457   35.5783 N   0  0  0  0  0  0  0  0  0  0  0  0
   16.1637   34.7597   33.1549 C   0  0  0  0  0  0  0  0  0  0  0  0
   15.6514   35.3493   35.4133 C   0  0  0  0  0  0  0  0  0  0  0  0
   16.3791   34.6312   34.5044 N   0  0  0  0  0  0  0  0  0  0  0  0
   15.9001   35.1935   36.8091 N   0  0  0  0  0  0  0  0  0  0  0  0
    9.7766   45.0104   32.1617 H   0  0  0  0  0  0  0  0  0  0  0  0
   11.8801   45.7141   32.8963 H   0  0  0  0  0  0  0  0  0  0  0  0
   10.8081   46.9727   33.0993 H   0  0  0  0  0  0  0  0  0  0  0  0
    8.4049   46.6430   33.4402 H   0  0  0  0  0  0  0  0  0  0  0  0
    7.8155   44.9764   33.6902 H   0  0  0  0  0  0  0  0  0  0  0  0
    9.0670   43.7577   37.9560 H   0  0  0  0  0  0  0  0  0  0  0  0
    9.5303   45.4914   37.9191 H   0  0  0  0  0  0  0  0  0  0  0  0
    6.4333   45.9456   36.6348 H   0  0  0  0  0  0  0  0  0  0  0  0
    5.9520   44.8770   41.4474 H   0  0  0  0  0  0  0  0  0  0  0  0
    4.3461   46.4276   37.8008 H   0  0  0  0  0  0  0  0  0  0  0  0
    4.0893   45.8807   40.1976 H   0  0  0  0  0  0  0  0  0  0  0  0
    9.8312   40.7398   31.7562 H   0  0  0  0  0  0  0  0  0  0  0  0
   11.4002   41.5455   31.4754 H   0  0  0  0  0  0  0  0  0  0  0  0
   11.6989   39.5093   30.3490 H   0  0  0  0  0  0  0  0  0  0  0  0
   10.1130   38.2589   32.6664 H   0  0  0  0  0  0  0  0  0  0  0  0
   13.6800   37.4626   31.2265 H   0  0  0  0  0  0  0  0  0  0  0  0
    8.8954   38.6910   30.8891 H   0  0  0  0  0  0  0  0  0  0  0  0
   11.2830   36.3060   32.4929 H   0  0  0  0  0  0  0  0  0  0  0  0
   11.8859   36.9589   29.7593 H   0  0  0  0  0  0  0  0  0  0  0  0
   12.3360   38.3600   34.7441 H   0  0  0  0  0  0  0  0  0  0  0  0
   16.7572   34.1793   32.4621 H   0  0  0  0  0  0  0  0  0  0  0  0
   16.6362   34.5318   37.1416 H   0  0  0  0  0  0  0  0  0  0  0  0
   15.3528   35.7357   37.5140 H   0  0  0  0  0  0  0  0  0  0  0  0
  1  2  2  0
  1  3  1  0
  3  4  1  0
  4  5  1  0
  6  1  1  0
  7  6  1  0
  6  8  1  0
  8  9  1  0
  9 10  1  0
  9 11  2  0
 10 12  1  0
 12 13  1  0
 13 14  2  0
 15 13  1  0
 14 16  1  0
 14 17  1  0
 18 15  2  0
 16 19  1  0
 16 20  2  0
 17 21  2  0
 21 18  1  0
  4 22  2  0
  4 23  1  0
 24 23  1  0
 24 25  1  0
 25 26  1  0
 25 27  1  0
 26 28  1  0
 27 29  1  0
 27 30  1  0
 30 28  1  0
 28 31  1  0
 30 32  1  0
 33 31  1  0
 34 31  1  0
 35 33  2  0
 33 36  1  0
 37 34  2  0
 38 35  1  0
 36 39  2  0
 36 37  1  0
 40 38  2  0
 40 39  1  0
 39 41  1  0
  6 42  1  6
  7 43  1  0
  7 44  1  0
  8 45  1  0
  8 46  1  0
 12 47  1  0
 12 48  1  0
 15 49  1  0
 17 50  1  0
 18 51  1  0
 21 52  1  0
 24 53  1  0
 24 54  1  0
 25 55  1  0
 27 56  1  0
 28 57  1  0
 29 58  1  0
 30 59  1  0
 32 60  1  0
 34 61  1  0
 38 62  1  0
 41 63  1  0
 41 64  1  0
M  CHG  3   5  -1  16   1  19  -1
M  END
>  <EmbedRMS>  (394) 
0.08834791722925586

$$$$

     RDKit          3D

 64 67  0  0  0  0  0  0  0  0999 V2000
   10.2844   43.7742   33.8067 C   0  0  0  0  0  0  0  0  0  0  0  0
   11.4068   43.5902   34.3635 O   0  0  0  0  0  0  0  0  0  0  0  0
    9.3680   42.7310   33.6986 O   0  0  0  0  0  0  0  0  0  0  0  0
    9.8859   41.2341   34.2835 P   0  0  0  0  0  5  0  0  0  0  0  0
   10.3663   41.4697   35.8740 O   0  0  0  0  0  1  0  0  0  0  0  0
    9.9490   45.1166   33.2550 C   0  0  2  0  0  0  0  0  0  0  0  0
   11.0756   46.0280   33.4732 N   0  0  0  0  0  0  0  0  0  0  0  0
    8.6784   45.6533   33.9435 C   0  0  0  0  0  0  0  0  0  0  0  0
    8.1803   46.9044   33.2886 C   0  0  0  0  0  0  0  0  0  0  0  0
    8.4946   48.1453   33.8488 O   0  0  0  0  0  0  0  0  0  0  0  0
    7.5088   46.8300   32.2233 O   0  0  0  0  0  0  0  0  0  0  0  0
    8.0750   49.3783   33.2732 C   0  0  0  0  0  0  0  0  0  0  0  0
    8.5474   50.5266   34.1303 C   0  0  0  0  0  0  0  0  0  0  0  0
    8.2251   50.6238   35.5127 C   0  0  0  0  0  0  0  0  0  0  0  0
    9.3654   51.5118   33.5458 C   0  0  0  0  0  0  0  0  0  0  0  0
    7.3850   49.6592   36.1741 N   0  0  0  0  0  4  0  0  0  0  0  0
    8.7584   51.6853   36.2657 C   0  0  0  0  0  0  0  0  0  0  0  0
    9.8699   52.5648   34.3095 C   0  0  0  0  0  0  0  0  0  0  0  0
    7.5573   49.4043   37.5154 O   0  0  0  0  0  1  0  0  0  0  0  0
    6.3962   49.1667   35.5939 O   0  0  0  0  0  0  0  0  0  0  0  0
    9.5708   52.6489   35.6673 C   0  0  0  0  0  0  0  0  0  0  0  0
    8.8082   40.1914   34.2081 O   0  0  0  0  0  0  0  0  0  0  0  0
   11.2374   40.7898   33.3677 O   0  0  0  0  0  0  0  0  0  0  0  0
   10.9156   40.6881   31.9946 C   0  0  0  0  0  0  0  0  0  0  0  0
   11.5262   39.3870   31.4363 C   0  0  0  0  0  0  0  0  0  0  0  0
   12.7492   39.0892   32.0818 O   0  0  0  0  0  0  0  0  0  0  0  0
   10.6123   38.1893   31.6461 C   0  0  0  0  0  0  0  0  0  0  0  0
   12.9374   37.6826   32.0301 C   0  0  0  0  0  0  0  0  0  0  0  0
    9.6150   38.0838   30.6538 O   0  0  0  0  0  0  0  0  0  0  0  0
   11.5793   37.0136   31.7014 C   0  0  0  0  0  0  0  0  0  0  0  0
   13.4906   37.2169   33.3242 N   0  0  0  0  0  0  0  0  0  0  0  0
   11.6216   36.3252   30.4725 O   0  0  0  0  0  0  0  0  0  0  0  0
   14.4763   36.3266   33.5731 C   0  0  0  0  0  0  0  0  0  0  0  0
   13.1182   37.6308   34.5694 C   0  0  0  0  0  0  0  0  0  0  0  0
   15.2066   35.6137   32.6740 N   0  0  0  0  0  0  0  0  0  0  0  0
   14.6736   36.2270   34.9185 C   0  0  0  0  0  0  0  0  0  0  0  0
   13.8229   37.0451   35.5787 N   0  0  0  0  0  0  0  0  0  0  0  0
   16.1639   34.7593   33.1547 C   0  0  0  0  0  0  0  0  0  0  0  0
   15.6519   35.3489   35.4132 C   0  0  0  0  0  0  0  0  0  0  0  0
   16.3795   34.6308   34.5042 N   0  0  0  0  0  0  0  0  0  0  0  0
   15.9006   35.1931   36.8090 N   0  0  0  0  0  0  0  0  0  0  0  0
    9.7626   45.0054   32.1626 H   0  0  0  0  0  0  0  0  0  0  0  0
   10.8469   46.9549   33.0472 H   0  0  0  0  0  0  0  0  0  0  0  0
   11.8958   45.6761   32.9262 H   0  0  0  0  0  0  0  0  0  0  0  0
    8.8870   45.8564   35.0169 H   0  0  0  0  0  0  0  0  0  0  0  0
    7.8675   44.8934   33.8963 H   0  0  0  0  0  0  0  0  0  0  0  0
    8.4898   49.4518   32.2438 H   0  0  0  0  0  0  0  0  0  0  0  0
    6.9685   49.4075   33.1846 H   0  0  0  0  0  0  0  0  0  0  0  0
    9.6239   51.4623   32.4952 H   0  0  0  0  0  0  0  0  0  0  0  0
    8.5307   51.7773   37.3201 H   0  0  0  0  0  0  0  0  0  0  0  0
   10.5000   53.3142   33.8478 H   0  0  0  0  0  0  0  0  0  0  0  0
    9.9671   53.4647   36.2581 H   0  0  0  0  0  0  0  0  0  0  0  0
    9.8255   40.7180   31.7577 H   0  0  0  0  0  0  0  0  0  0  0  0
   11.3830   41.5502   31.4724 H   0  0  0  0  0  0  0  0  0  0  0  0
   11.7292   39.5285   30.3502 H   0  0  0  0  0  0  0  0  0  0  0  0
   10.1140   38.2719   32.6379 H   0  0  0  0  0  0  0  0  0  0  0  0
   13.6726   37.4635   31.2240 H   0  0  0  0  0  0  0  0  0  0  0  0
   10.0535   38.1084   29.7638 H   0  0  0  0  0  0  0  0  0  0  0  0
   11.2646   36.3134   32.5107 H   0  0  0  0  0  0  0  0  0  0  0  0
   12.1549   35.5031   30.6316 H   0  0  0  0  0  0  0  0  0  0  0  0
   12.3362   38.3586   34.7450 H   0  0  0  0  0  0  0  0  0  0  0  0
   16.7574   34.1788   32.4619 H   0  0  0  0  0  0  0  0  0  0  0  0
   15.3533   35.7353   37.5139 H   0  0  0  0  0  0  0  0  0  0  0  0
   16.6366   34.5314   37.1415 H   0  0  0  0  0  0  0  0  0  0  0  0
  1  2  2  0
  1  3  1  0
  3  4  1  0
  4  5  1  0
  6  1  1  0
  7  6  1  0
  6  8  1  0
  8  9  1  0
  9 10  1  0
  9 11  2  0
 10 12  1  0
 12 13  1  0
 13 14  2  0
 15 13  1  0
 14 16  1  0
 14 17  1  0
 18 15  2  0
 16 19  1  0
 16 20  2  0
 17 21  2  0
 21 18  1  0
  4 22  2  0
  4 23  1  0
 24 23  1  0
 24 25  1  0
 25 26  1  0
 25 27  1  0
 26 28  1  0
 27 29  1  0
 27 30  1  0
 30 28  1  0
 28 31  1  0
 30 32  1  0
 33 31  1  0
 34 31  1  0
 35 33  2  0
 33 36  1  0
 37 34  2  0
 38 35  1  0
 36 39  2  0
 36 37  1  0
 40 38  2  0
 40 39  1  0
 39 41  1  0
  6 42  1  6
  7 43  1  0
  7 44  1  0
  8 45  1  0
  8 46  1  0
 12 47  1  0
 12 48  1  0
 15 49  1  0
 17 50  1  0
 18 51  1  0
 21 52  1  0
 24 53  1  0
 24 54  1  0
 25 55  1  0
 27 56  1  0
 28 57  1  0
 29 58  1  0
 30 59  1  0
 32 60  1  0
 34 61  1  0
 38 62  1  0
 41 63  1  0
 41 64  1  0
M  CHG  3   5  -1  16   1  19  -1
M  END
>  <EmbedRMS>  (395) 
0.08800761115001592

$$$$

     RDKit          3D

 64 67  0  0  0  0  0  0  0  0999 V2000
   10.2862   43.7719   33.8045 C   0  0  0  0  0  0  0  0  0  0  0  0
   11.4086   43.5885   34.3611 O   0  0  0  0  0  0  0  0  0  0  0  0
    9.3678   42.7306   33.6989 O   0  0  0  0  0  0  0  0  0  0  0  0
    9.8859   41.2339   34.2836 P   0  0  0  0  0  5  0  0  0  0  0  0
   10.3655   41.4699   35.8743 O   0  0  0  0  0  1  0  0  0  0  0  0
    9.9530   45.1147   33.2533 C   0  0  2  0  0  0  0  0  0  0  0  0
   11.0711   46.0333   33.4767 N   0  0  0  0  0  0  0  0  0  0  0  0
    8.6602   45.6655   33.8884 C   0  0  0  0  0  0  0  0  0  0  0  0
    8.7929   45.8669   35.3686 C   0  0  0  0  0  0  0  0  0  0  0  0
    9.3472   47.0565   35.8547 O   0  0  0  0  0  0  0  0  0  0  0  0
    8.4358   44.9517   36.1602 O   0  0  0  0  0  0  0  0  0  0  0  0
    9.5215   47.3244   37.2460 C   0  0  0  0  0  0  0  0  0  0  0  0
    8.1955   47.5524   37.9418 C   0  0  0  0  0  0  0  0  0  0  0  0
    7.9912   47.1888   39.2998 C   0  0  0  0  0  0  0  0  0  0  0  0
    7.1431   48.1646   37.2332 C   0  0  0  0  0  0  0  0  0  0  0  0
    9.0536   46.6636   40.1135 N   0  0  0  0  0  4  0  0  0  0  0  0
    6.7193   47.3607   39.8734 C   0  0  0  0  0  0  0  0  0  0  0  0
    5.8936   48.3452   37.8277 C   0  0  0  0  0  0  0  0  0  0  0  0
    8.7714   45.7534   41.1060 O   0  0  0  0  0  1  0  0  0  0  0  0
   10.1907   47.1772   40.0745 O   0  0  0  0  0  0  0  0  0  0  0  0
    5.6785   47.9324   39.1409 C   0  0  0  0  0  0  0  0  0  0  0  0
    8.8083   40.1911   34.2077 O   0  0  0  0  0  0  0  0  0  0  0  0
   11.2386   40.7898   33.3687 O   0  0  0  0  0  0  0  0  0  0  0  0
   10.9197   40.6894   31.9949 C   0  0  0  0  0  0  0  0  0  0  0  0
   11.5172   39.3800   31.4397 C   0  0  0  0  0  0  0  0  0  0  0  0
   12.7480   39.0860   32.0732 O   0  0  0  0  0  0  0  0  0  0  0  0
   10.6031   38.1891   31.6666 C   0  0  0  0  0  0  0  0  0  0  0  0
   12.9335   37.6796   32.0279 C   0  0  0  0  0  0  0  0  0  0  0  0
    9.6397   38.0777   30.6456 O   0  0  0  0  0  0  0  0  0  0  0  0
   11.5739   37.0154   31.7057 C   0  0  0  0  0  0  0  0  0  0  0  0
   13.4903   37.2178   33.3231 N   0  0  0  0  0  0  0  0  0  0  0  0
   11.6210   36.3376   30.4695 O   0  0  0  0  0  0  0  0  0  0  0  0
   14.4761   36.3273   33.5725 C   0  0  0  0  0  0  0  0  0  0  0  0
   13.1179   37.6316   34.5684 C   0  0  0  0  0  0  0  0  0  0  0  0
   15.2063   35.6139   32.6737 N   0  0  0  0  0  0  0  0  0  0  0  0
   14.6734   36.2277   34.9180 C   0  0  0  0  0  0  0  0  0  0  0  0
   13.8225   37.0459   35.5779 N   0  0  0  0  0  0  0  0  0  0  0  0
   16.1636   34.7594   33.1546 C   0  0  0  0  0  0  0  0  0  0  0  0
   15.6515   35.3494   35.4129 C   0  0  0  0  0  0  0  0  0  0  0  0
   16.3791   34.6311   34.5041 N   0  0  0  0  0  0  0  0  0  0  0  0
   15.9001   35.1935   36.8088 N   0  0  0  0  0  0  0  0  0  0  0  0
    9.7837   45.0051   32.1584 H   0  0  0  0  0  0  0  0  0  0  0  0
   10.8098   46.9716   33.0950 H   0  0  0  0  0  0  0  0  0  0  0  0
   11.8827   45.7127   32.8987 H   0  0  0  0  0  0  0  0  0  0  0  0
    7.8142   44.9739   33.6810 H   0  0  0  0  0  0  0  0  0  0  0  0
    8.4030   46.6382   33.4162 H   0  0  0  0  0  0  0  0  0  0  0  0
   10.0748   46.4732   37.6962 H   0  0  0  0  0  0  0  0  0  0  0  0
   10.1409   48.2386   37.3570 H   0  0  0  0  0  0  0  0  0  0  0  0
    7.2827   48.4914   36.2103 H   0  0  0  0  0  0  0  0  0  0  0  0
    6.5406   47.0771   40.9029 H   0  0  0  0  0  0  0  0  0  0  0  0
    5.0892   48.8033   37.2669 H   0  0  0  0  0  0  0  0  0  0  0  0
    4.7073   48.0706   39.5985 H   0  0  0  0  0  0  0  0  0  0  0  0
    9.8319   40.7398   31.7546 H   0  0  0  0  0  0  0  0  0  0  0  0
   11.4016   41.5436   31.4731 H   0  0  0  0  0  0  0  0  0  0  0  0
   11.6983   39.5042   30.3470 H   0  0  0  0  0  0  0  0  0  0  0  0
   10.1090   38.2632   32.6649 H   0  0  0  0  0  0  0  0  0  0  0  0
   13.6656   37.4539   31.2207 H   0  0  0  0  0  0  0  0  0  0  0  0
    8.8966   38.6901   30.8851 H   0  0  0  0  0  0  0  0  0  0  0  0
   11.2846   36.3060   32.5175 H   0  0  0  0  0  0  0  0  0  0  0  0
   10.8523   35.7094   30.4590 H   0  0  0  0  0  0  0  0  0  0  0  0
   12.3353   38.3588   34.7439 H   0  0  0  0  0  0  0  0  0  0  0  0
   16.7570   34.1788   32.4619 H   0  0  0  0  0  0  0  0  0  0  0  0
   15.3529   35.7359   37.5136 H   0  0  0  0  0  0  0  0  0  0  0  0
   16.6360   34.5317   37.1414 H   0  0  0  0  0  0  0  0  0  0  0  0
  1  2  2  0
  1  3  1  0
  3  4  1  0
  4  5  1  0
  6  1  1  0
  7  6  1  0
  6  8  1  0
  8  9  1  0
  9 10  1  0
  9 11  2  0
 10 12  1  0
 12 13  1  0
 13 14  2  0
 15 13  1  0
 14 16  1  0
 14 17  1  0
 18 15  2  0
 16 19  1  0
 16 20  2  0
 17 21  2  0
 21 18  1  0
  4 22  2  0
  4 23  1  0
 24 23  1  0
 24 25  1  0
 25 26  1  0
 25 27  1  0
 26 28  1  0
 27 29  1  0
 27 30  1  0
 30 28  1  0
 28 31  1  0
 30 32  1  0
 33 31  1  0
 34 31  1  0
 35 33  2  0
 33 36  1  0
 37 34  2  0
 38 35  1  0
 36 39  2  0
 36 37  1  0
 40 38  2  0
 40 39  1  0
 39 41  1  0
  6 42  1  6
  7 43  1  0
  7 44  1  0
  8 45  1  0
  8 46  1  0
 12 47  1  0
 12 48  1  0
 15 49  1  0
 17 50  1  0
 18 51  1  0
 21 52  1  0
 24 53  1  0
 24 54  1  0
 25 55  1  0
 27 56  1  0
 28 57  1  0
 29 58  1  0
 30 59  1  0
 32 60  1  0
 34 61  1  0
 38 62  1  0
 41 63  1  0
 41 64  1  0
M  CHG  3   5  -1  16   1  19  -1
M  END
>  <EmbedRMS>  (396) 
0.08946349057754809

$$$$

     RDKit          3D

 64 67  0  0  0  0  0  0  0  0999 V2000
   10.2822   43.7751   33.8087 C   0  0  0  0  0  0  0  0  0  0  0  0
   11.4052   43.5917   34.3646 O   0  0  0  0  0  0  0  0  0  0  0  0
    9.3715   42.7283   33.6941 O   0  0  0  0  0  0  0  0  0  0  0  0
    9.8867   41.2333   34.2832 P   0  0  0  0  0  5  0  0  0  0  0  0
   10.3657   41.4709   35.8739 O   0  0  0  0  0  1  0  0  0  0  0  0
    9.9438   45.1230   33.2640 C   0  0  2  0  0  0  0  0  0  0  0  0
   11.0797   46.0240   33.4662 N   0  0  0  0  0  0  0  0  0  0  0  0
    8.6978   45.7034   33.9663 C   0  0  0  0  0  0  0  0  0  0  0  0
    7.4500   44.9506   33.6177 C   0  0  0  0  0  0  0  0  0  0  0  0
    6.9254   44.0310   34.5327 O   0  0  0  0  0  0  0  0  0  0  0  0
    6.9094   45.1236   32.4918 O   0  0  0  0  0  0  0  0  0  0  0  0
    5.7501   43.2597   34.2940 C   0  0  0  0  0  0  0  0  0  0  0  0
    4.5133   44.1118   34.4478 C   0  0  0  0  0  0  0  0  0  0  0  0
    3.9614   44.4232   35.7198 C   0  0  0  0  0  0  0  0  0  0  0  0
    3.8798   44.5932   33.2874 C   0  0  0  0  0  0  0  0  0  0  0  0
    4.5654   43.9672   36.9447 N   0  0  0  0  0  4  0  0  0  0  0  0
    2.7782   45.1829   35.7839 C   0  0  0  0  0  0  0  0  0  0  0  0
    2.7160   45.3575   33.3752 C   0  0  0  0  0  0  0  0  0  0  0  0
    5.9319   43.9687   37.0992 O   0  0  0  0  0  1  0  0  0  0  0  0
    3.8516   43.7203   37.9389 O   0  0  0  0  0  0  0  0  0  0  0  0
    2.1644   45.6489   34.6207 C   0  0  0  0  0  0  0  0  0  0  0  0
    8.8078   40.1918   34.2080 O   0  0  0  0  0  0  0  0  0  0  0  0
   11.2380   40.7879   33.3681 O   0  0  0  0  0  0  0  0  0  0  0  0
   10.9163   40.6878   31.9950 C   0  0  0  0  0  0  0  0  0  0  0  0
   11.5264   39.3869   31.4361 C   0  0  0  0  0  0  0  0  0  0  0  0
   12.7495   39.0890   32.0814 O   0  0  0  0  0  0  0  0  0  0  0  0
   10.6124   38.1893   31.6460 C   0  0  0  0  0  0  0  0  0  0  0  0
   12.9374   37.6824   32.0300 C   0  0  0  0  0  0  0  0  0  0  0  0
    9.6150   38.0839   30.6538 O   0  0  0  0  0  0  0  0  0  0  0  0
   11.5793   37.0135   31.7013 C   0  0  0  0  0  0  0  0  0  0  0  0
   13.4906   37.2168   33.3242 N   0  0  0  0  0  0  0  0  0  0  0  0
   11.6215   36.3251   30.4724 O   0  0  0  0  0  0  0  0  0  0  0  0
   14.4763   36.3266   33.5731 C   0  0  0  0  0  0  0  0  0  0  0  0
   13.1181   37.6308   34.5693 C   0  0  0  0  0  0  0  0  0  0  0  0
   15.2066   35.6136   32.6740 N   0  0  0  0  0  0  0  0  0  0  0  0
   14.6735   36.2270   34.9185 C   0  0  0  0  0  0  0  0  0  0  0  0
   13.8228   37.0451   35.5787 N   0  0  0  0  0  0  0  0  0  0  0  0
   16.1639   34.7593   33.1547 C   0  0  0  0  0  0  0  0  0  0  0  0
   15.6518   35.3489   35.4132 C   0  0  0  0  0  0  0  0  0  0  0  0
   16.3795   34.6308   34.5042 N   0  0  0  0  0  0  0  0  0  0  0  0
   15.9005   35.1931   36.8090 N   0  0  0  0  0  0  0  0  0  0  0  0
    9.7437   45.0277   32.1724 H   0  0  0  0  0  0  0  0  0  0  0  0
   10.8356   46.9615   33.0712 H   0  0  0  0  0  0  0  0  0  0  0  0
   11.8805   45.6817   32.8853 H   0  0  0  0  0  0  0  0  0  0  0  0
    8.5550   46.7627   33.6608 H   0  0  0  0  0  0  0  0  0  0  0  0
    8.8435   45.6937   35.0690 H   0  0  0  0  0  0  0  0  0  0  0  0
    5.7160   42.4190   35.0180 H   0  0  0  0  0  0  0  0  0  0  0  0
    5.8017   42.7953   33.2844 H   0  0  0  0  0  0  0  0  0  0  0  0
    4.2813   44.3670   32.3074 H   0  0  0  0  0  0  0  0  0  0  0  0
    2.3370   45.4290   36.7415 H   0  0  0  0  0  0  0  0  0  0  0  0
    2.2375   45.7195   32.4743 H   0  0  0  0  0  0  0  0  0  0  0  0
    1.2592   46.2389   34.6860 H   0  0  0  0  0  0  0  0  0  0  0  0
   11.3841   41.5501   31.4735 H   0  0  0  0  0  0  0  0  0  0  0  0
    9.8261   40.7182   31.7578 H   0  0  0  0  0  0  0  0  0  0  0  0
   11.7292   39.5286   30.3500 H   0  0  0  0  0  0  0  0  0  0  0  0
   10.1141   38.2720   32.6379 H   0  0  0  0  0  0  0  0  0  0  0  0
   13.6726   37.4630   31.2239 H   0  0  0  0  0  0  0  0  0  0  0  0
   10.0535   38.1085   29.7638 H   0  0  0  0  0  0  0  0  0  0  0  0
   11.2645   36.3134   32.5106 H   0  0  0  0  0  0  0  0  0  0  0  0
   12.1546   35.5030   30.6315 H   0  0  0  0  0  0  0  0  0  0  0  0
   12.3361   38.3585   34.7449 H   0  0  0  0  0  0  0  0  0  0  0  0
   16.7574   34.1788   32.4619 H   0  0  0  0  0  0  0  0  0  0  0  0
   15.3533   35.7353   37.5139 H   0  0  0  0  0  0  0  0  0  0  0  0
   16.6365   34.5314   37.1415 H   0  0  0  0  0  0  0  0  0  0  0  0
  1  2  2  0
  1  3  1  0
  3  4  1  0
  4  5  1  0
  6  1  1  0
  7  6  1  0
  6  8  1  0
  8  9  1  0
  9 10  1  0
  9 11  2  0
 10 12  1  0
 12 13  1  0
 13 14  2  0
 15 13  1  0
 14 16  1  0
 14 17  1  0
 18 15  2  0
 16 19  1  0
 16 20  2  0
 17 21  2  0
 21 18  1  0
  4 22  2  0
  4 23  1  0
 24 23  1  0
 24 25  1  0
 25 26  1  0
 25 27  1  0
 26 28  1  0
 27 29  1  0
 27 30  1  0
 30 28  1  0
 28 31  1  0
 30 32  1  0
 33 31  1  0
 34 31  1  0
 35 33  2  0
 33 36  1  0
 37 34  2  0
 38 35  1  0
 36 39  2  0
 36 37  1  0
 40 38  2  0
 40 39  1  0
 39 41  1  0
  6 42  1  6
  7 43  1  0
  7 44  1  0
  8 45  1  0
  8 46  1  0
 12 47  1  0
 12 48  1  0
 15 49  1  0
 17 50  1  0
 18 51  1  0
 21 52  1  0
 24 53  1  0
 24 54  1  0
 25 55  1  0
 27 56  1  0
 28 57  1  0
 29 58  1  0
 30 59  1  0
 32 60  1  0
 34 61  1  0
 38 62  1  0
 41 63  1  0
 41 64  1  0
M  CHG  3   5  -1  16   1  19  -1
M  END
>  <EmbedRMS>  (397) 
0.08849023956936103

$$$$

     RDKit          3D

 64 67  0  0  0  0  0  0  0  0999 V2000
   10.2841   43.7744   33.8074 C   0  0  0  0  0  0  0  0  0  0  0  0
   11.4066   43.5905   34.3642 O   0  0  0  0  0  0  0  0  0  0  0  0
    9.3679   42.7311   33.6990 O   0  0  0  0  0  0  0  0  0  0  0  0
    9.8862   41.2340   34.2827 P   0  0  0  0  0  5  0  0  0  0  0  0
   10.3670   41.4692   35.8733 O   0  0  0  0  0  1  0  0  0  0  0  0
    9.9499   45.1159   33.2532 C   0  0  2  0  0  0  0  0  0  0  0  0
   11.0750   46.0279   33.4732 N   0  0  0  0  0  0  0  0  0  0  0  0
    8.6767   45.6547   33.9360 C   0  0  0  0  0  0  0  0  0  0  0  0
    8.1716   46.8965   33.2681 C   0  0  0  0  0  0  0  0  0  0  0  0
    8.3361   48.1359   33.8976 O   0  0  0  0  0  0  0  0  0  0  0  0
    7.6159   46.8167   32.1383 O   0  0  0  0  0  0  0  0  0  0  0  0
    7.9195   49.3677   33.3100 C   0  0  0  0  0  0  0  0  0  0  0  0
    8.8249   49.7373   32.1562 C   0  0  0  0  0  0  0  0  0  0  0  0
    8.3308   50.0501   30.8623 C   0  0  0  0  0  0  0  0  0  0  0  0
   10.2143   49.7343   32.3754 C   0  0  0  0  0  0  0  0  0  0  0  0
    6.9254   50.1648   30.5940 N   0  0  0  0  0  4  0  0  0  0  0  0
    9.2404   50.2740   29.8148 C   0  0  0  0  0  0  0  0  0  0  0  0
   11.1021   49.9791   31.3270 C   0  0  0  0  0  0  0  0  0  0  0  0
    6.4220   49.7253   29.3915 O   0  0  0  0  0  1  0  0  0  0  0  0
    6.2071   50.8802   31.3220 O   0  0  0  0  0  0  0  0  0  0  0  0
   10.6163   50.2372   30.0464 C   0  0  0  0  0  0  0  0  0  0  0  0
    8.8083   40.1914   34.2078 O   0  0  0  0  0  0  0  0  0  0  0  0
   11.2374   40.7905   33.3655 O   0  0  0  0  0  0  0  0  0  0  0  0
   10.9138   40.6843   31.9928 C   0  0  0  0  0  0  0  0  0  0  0  0
   11.5176   39.3773   31.4393 C   0  0  0  0  0  0  0  0  0  0  0  0
   12.7478   39.0869   32.0755 O   0  0  0  0  0  0  0  0  0  0  0  0
   10.6070   38.1852   31.6656 C   0  0  0  0  0  0  0  0  0  0  0  0
   12.9372   37.6810   32.0290 C   0  0  0  0  0  0  0  0  0  0  0  0
    9.6404   38.0883   30.6475 O   0  0  0  0  0  0  0  0  0  0  0  0
   11.5789   37.0134   31.7045 C   0  0  0  0  0  0  0  0  0  0  0  0
   13.4915   37.2181   33.3239 N   0  0  0  0  0  0  0  0  0  0  0  0
   11.6125   36.3390   30.4673 O   0  0  0  0  0  0  0  0  0  0  0  0
   14.4766   36.3271   33.5730 C   0  0  0  0  0  0  0  0  0  0  0  0
   13.1185   37.6317   34.5690 C   0  0  0  0  0  0  0  0  0  0  0  0
   15.2066   35.6138   32.6740 N   0  0  0  0  0  0  0  0  0  0  0  0
   14.6735   36.2273   34.9184 C   0  0  0  0  0  0  0  0  0  0  0  0
   13.8228   37.0455   35.5785 N   0  0  0  0  0  0  0  0  0  0  0  0
   16.1638   34.7592   33.1547 C   0  0  0  0  0  0  0  0  0  0  0  0
   15.6517   35.3490   35.4132 C   0  0  0  0  0  0  0  0  0  0  0  0
   16.3793   34.6308   34.5043 N   0  0  0  0  0  0  0  0  0  0  0  0
   15.9003   35.1932   36.8090 N   0  0  0  0  0  0  0  0  0  0  0  0
    9.7682   45.0020   32.1602 H   0  0  0  0  0  0  0  0  0  0  0  0
   10.8438   46.9531   33.0464 H   0  0  0  0  0  0  0  0  0  0  0  0
   11.8959   45.6777   32.9262 H   0  0  0  0  0  0  0  0  0  0  0  0
    8.8844   45.8674   35.0077 H   0  0  0  0  0  0  0  0  0  0  0  0
    7.8682   44.8923   33.8943 H   0  0  0  0  0  0  0  0  0  0  0  0
    6.8564   49.2715   33.0126 H   0  0  0  0  0  0  0  0  0  0  0  0
    7.9814   50.1671   34.0778 H   0  0  0  0  0  0  0  0  0  0  0  0
   10.6119   49.5206   33.3602 H   0  0  0  0  0  0  0  0  0  0  0  0
    8.8812   50.5038   28.8195 H   0  0  0  0  0  0  0  0  0  0  0  0
   12.1692   49.9603   31.5067 H   0  0  0  0  0  0  0  0  0  0  0  0
   11.3066   50.4218   29.2334 H   0  0  0  0  0  0  0  0  0  0  0  0
    9.8237   40.7190   31.7566 H   0  0  0  0  0  0  0  0  0  0  0  0
   11.3854   41.5414   31.4662 H   0  0  0  0  0  0  0  0  0  0  0  0
   11.7009   39.5018   30.3469 H   0  0  0  0  0  0  0  0  0  0  0  0
   10.1099   38.2752   32.6606 H   0  0  0  0  0  0  0  0  0  0  0  0
   13.6712   37.4589   31.2227 H   0  0  0  0  0  0  0  0  0  0  0  0
    9.0033   37.3836   30.9352 H   0  0  0  0  0  0  0  0  0  0  0  0
   11.2706   36.3047   32.5088 H   0  0  0  0  0  0  0  0  0  0  0  0
   12.1443   35.5137   30.6140 H   0  0  0  0  0  0  0  0  0  0  0  0
   12.3363   38.3592   34.7444 H   0  0  0  0  0  0  0  0  0  0  0  0
   16.7572   34.1787   32.4620 H   0  0  0  0  0  0  0  0  0  0  0  0
   16.6362   34.5313   37.1416 H   0  0  0  0  0  0  0  0  0  0  0  0
   15.3531   35.7354   37.5139 H   0  0  0  0  0  0  0  0  0  0  0  0
  1  2  2  0
  1  3  1  0
  3  4  1  0
  4  5  1  0
  6  1  1  0
  7  6  1  0
  6  8  1  0
  8  9  1  0
  9 10  1  0
  9 11  2  0
 10 12  1  0
 12 13  1  0
 13 14  2  0
 15 13  1  0
 14 16  1  0
 14 17  1  0
 18 15  2  0
 16 19  1  0
 16 20  2  0
 17 21  2  0
 21 18  1  0
  4 22  2  0
  4 23  1  0
 24 23  1  0
 24 25  1  0
 25 26  1  0
 25 27  1  0
 26 28  1  0
 27 29  1  0
 27 30  1  0
 30 28  1  0
 28 31  1  0
 30 32  1  0
 33 31  1  0
 34 31  1  0
 35 33  2  0
 33 36  1  0
 37 34  2  0
 38 35  1  0
 36 39  2  0
 36 37  1  0
 40 38  2  0
 40 39  1  0
 39 41  1  0
  6 42  1  6
  7 43  1  0
  7 44  1  0
  8 45  1  0
  8 46  1  0
 12 47  1  0
 12 48  1  0
 15 49  1  0
 17 50  1  0
 18 51  1  0
 21 52  1  0
 24 53  1  0
 24 54  1  0
 25 55  1  0
 27 56  1  0
 28 57  1  0
 29 58  1  0
 30 59  1  0
 32 60  1  0
 34 61  1  0
 38 62  1  0
 41 63  1  0
 41 64  1  0
M  CHG  3   5  -1  16   1  19  -1
M  END
>  <EmbedRMS>  (398) 
0.08888818440055572

$$$$

     RDKit          3D

 64 67  0  0  0  0  0  0  0  0999 V2000
   10.2862   43.7711   33.8099 C   0  0  0  0  0  0  0  0  0  0  0  0
   11.4100   43.5818   34.3616 O   0  0  0  0  0  0  0  0  0  0  0  0
    9.3668   42.7309   33.7019 O   0  0  0  0  0  0  0  0  0  0  0  0
    9.8845   41.2330   34.2841 P   0  0  0  0  0  5  0  0  0  0  0  0
   10.3656   41.4677   35.8746 O   0  0  0  0  0  1  0  0  0  0  0  0
    9.9608   45.1124   33.2472 C   0  0  2  0  0  0  0  0  0  0  0  0
   11.0655   46.0476   33.4748 N   0  0  0  0  0  0  0  0  0  0  0  0
    8.6648   45.6573   33.8711 C   0  0  0  0  0  0  0  0  0  0  0  0
    8.2744   46.9625   33.2503 C   0  0  0  0  0  0  0  0  0  0  0  0
    8.6121   48.1600   33.8916 O   0  0  0  0  0  0  0  0  0  0  0  0
    7.6772   46.9727   32.1391 O   0  0  0  0  0  0  0  0  0  0  0  0
    8.3422   49.4453   33.3324 C   0  0  0  0  0  0  0  0  0  0  0  0
    9.2399   49.7224   32.1457 C   0  0  0  0  0  0  0  0  0  0  0  0
    8.7678   50.3798   30.9800 C   0  0  0  0  0  0  0  0  0  0  0  0
   10.5877   49.3208   32.2058 C   0  0  0  0  0  0  0  0  0  0  0  0
    7.4381   50.9195   30.9055 N   0  0  0  0  0  4  0  0  0  0  0  0
    9.6301   50.5312   29.8793 C   0  0  0  0  0  0  0  0  0  0  0  0
   11.4334   49.4961   31.1099 C   0  0  0  0  0  0  0  0  0  0  0  0
    6.9377   51.6667   31.9469 O   0  0  0  0  0  1  0  0  0  0  0  0
    6.8154   50.9010   29.8237 O   0  0  0  0  0  0  0  0  0  0  0  0
   10.9520   50.0885   29.9441 C   0  0  0  0  0  0  0  0  0  0  0  0
    8.8069   40.1904   34.2081 O   0  0  0  0  0  0  0  0  0  0  0  0
   11.2365   40.7897   33.3680 O   0  0  0  0  0  0  0  0  0  0  0  0
   10.9151   40.6881   31.9949 C   0  0  0  0  0  0  0  0  0  0  0  0
   11.5260   39.3871   31.4364 C   0  0  0  0  0  0  0  0  0  0  0  0
   12.7490   39.0893   32.0819 O   0  0  0  0  0  0  0  0  0  0  0  0
   10.6123   38.1893   31.6461 C   0  0  0  0  0  0  0  0  0  0  0  0
   12.9373   37.6827   32.0301 C   0  0  0  0  0  0  0  0  0  0  0  0
    9.6150   38.0838   30.6538 O   0  0  0  0  0  0  0  0  0  0  0  0
   11.5793   37.0136   31.7013 C   0  0  0  0  0  0  0  0  0  0  0  0
   13.4906   37.2170   33.3242 N   0  0  0  0  0  0  0  0  0  0  0  0
   11.6217   36.3252   30.4725 O   0  0  0  0  0  0  0  0  0  0  0  0
   14.4763   36.3266   33.5731 C   0  0  0  0  0  0  0  0  0  0  0  0
   13.1181   37.6308   34.5694 C   0  0  0  0  0  0  0  0  0  0  0  0
   15.2065   35.6137   32.6740 N   0  0  0  0  0  0  0  0  0  0  0  0
   14.6735   36.2270   34.9185 C   0  0  0  0  0  0  0  0  0  0  0  0
   13.8229   37.0451   35.5787 N   0  0  0  0  0  0  0  0  0  0  0  0
   16.1639   34.7593   33.1547 C   0  0  0  0  0  0  0  0  0  0  0  0
   15.6519   35.3489   35.4132 C   0  0  0  0  0  0  0  0  0  0  0  0
   16.3794   34.6308   34.5042 N   0  0  0  0  0  0  0  0  0  0  0  0
   15.9006   35.1931   36.8090 N   0  0  0  0  0  0  0  0  0  0  0  0
    9.8105   44.9951   32.1510 H   0  0  0  0  0  0  0  0  0  0  0  0
   11.9217   45.7034   32.9813 H   0  0  0  0  0  0  0  0  0  0  0  0
   11.2756   46.1189   34.4979 H   0  0  0  0  0  0  0  0  0  0  0  0
    8.7976   45.7954   34.9666 H   0  0  0  0  0  0  0  0  0  0  0  0
    7.8358   44.9316   33.7191 H   0  0  0  0  0  0  0  0  0  0  0  0
    7.2675   49.4857   33.0585 H   0  0  0  0  0  0  0  0  0  0  0  0
    8.5301   50.2181   34.1065 H   0  0  0  0  0  0  0  0  0  0  0  0
   10.9830   48.8562   33.1002 H   0  0  0  0  0  0  0  0  0  0  0  0
    9.2845   51.0199   28.9771 H   0  0  0  0  0  0  0  0  0  0  0  0
   12.4635   49.1681   31.1640 H   0  0  0  0  0  0  0  0  0  0  0  0
   11.6091   50.2209   29.0942 H   0  0  0  0  0  0  0  0  0  0  0  0
    9.8250   40.7180   31.7578 H   0  0  0  0  0  0  0  0  0  0  0  0
   11.3825   41.5504   31.4729 H   0  0  0  0  0  0  0  0  0  0  0  0
   11.7290   39.5287   30.3503 H   0  0  0  0  0  0  0  0  0  0  0  0
   10.1139   38.2718   32.6379 H   0  0  0  0  0  0  0  0  0  0  0  0
   13.6726   37.4637   31.2240 H   0  0  0  0  0  0  0  0  0  0  0  0
   10.0535   38.1085   29.7638 H   0  0  0  0  0  0  0  0  0  0  0  0
   11.2646   36.3134   32.5107 H   0  0  0  0  0  0  0  0  0  0  0  0
   12.1550   35.5032   30.6315 H   0  0  0  0  0  0  0  0  0  0  0  0
   12.3362   38.3586   34.7450 H   0  0  0  0  0  0  0  0  0  0  0  0
   16.7573   34.1788   32.4619 H   0  0  0  0  0  0  0  0  0  0  0  0
   15.3533   35.7353   37.5139 H   0  0  0  0  0  0  0  0  0  0  0  0
   16.6366   34.5314   37.1415 H   0  0  0  0  0  0  0  0  0  0  0  0
  1  2  2  0
  1  3  1  0
  3  4  1  0
  4  5  1  0
  6  1  1  0
  7  6  1  0
  6  8  1  0
  8  9  1  0
  9 10  1  0
  9 11  2  0
 10 12  1  0
 12 13  1  0
 13 14  2  0
 15 13  1  0
 14 16  1  0
 14 17  1  0
 18 15  2  0
 16 19  1  0
 16 20  2  0
 17 21  2  0
 21 18  1  0
  4 22  2  0
  4 23  1  0
 24 23  1  0
 24 25  1  0
 25 26  1  0
 25 27  1  0
 26 28  1  0
 27 29  1  0
 27 30  1  0
 30 28  1  0
 28 31  1  0
 30 32  1  0
 33 31  1  0
 34 31  1  0
 35 33  2  0
 33 36  1  0
 37 34  2  0
 38 35  1  0
 36 39  2  0
 36 37  1  0
 40 38  2  0
 40 39  1  0
 39 41  1  0
  6 42  1  6
  7 43  1  0
  7 44  1  0
  8 45  1  0
  8 46  1  0
 12 47  1  0
 12 48  1  0
 15 49  1  0
 17 50  1  0
 18 51  1  0
 21 52  1  0
 24 53  1  0
 24 54  1  0
 25 55  1  0
 27 56  1  0
 28 57  1  0
 29 58  1  0
 30 59  1  0
 32 60  1  0
 34 61  1  0
 38 62  1  0
 41 63  1  0
 41 64  1  0
M  CHG  3   5  -1  16   1  19  -1
M  END
>  <EmbedRMS>  (399) 
0.08842060493080874

$$$$

     RDKit          3D

 64 67  0  0  0  0  0  0  0  0999 V2000
   10.2863   43.7710   33.8101 C   0  0  0  0  0  0  0  0  0  0  0  0
   11.4101   43.5818   34.3618 O   0  0  0  0  0  0  0  0  0  0  0  0
    9.3671   42.7307   33.7018 O   0  0  0  0  0  0  0  0  0  0  0  0
    9.8851   41.2327   34.2838 P   0  0  0  0  0  5  0  0  0  0  0  0
   10.3652   41.4674   35.8746 O   0  0  0  0  0  1  0  0  0  0  0  0
    9.9612   45.1120   33.2465 C   0  0  2  0  0  0  0  0  0  0  0  0
   11.0653   46.0480   33.4751 N   0  0  0  0  0  0  0  0  0  0  0  0
    8.6644   45.6571   33.8678 C   0  0  0  0  0  0  0  0  0  0  0  0
    8.2698   46.9560   33.2362 C   0  0  0  0  0  0  0  0  0  0  0  0
    7.6206   46.9464   31.9953 O   0  0  0  0  0  0  0  0  0  0  0  0
    8.5635   48.0436   33.8037 O   0  0  0  0  0  0  0  0  0  0  0  0
    7.2270   48.1312   31.3007 C   0  0  0  0  0  0  0  0  0  0  0  0
    8.2838   48.6236   30.3295 C   0  0  0  0  0  0  0  0  0  0  0  0
    7.9466   49.5376   29.2934 C   0  0  0  0  0  0  0  0  0  0  0  0
    9.6184   48.1770   30.4326 C   0  0  0  0  0  0  0  0  0  0  0  0
    6.6150   50.0667   29.1536 N   0  0  0  0  0  4  0  0  0  0  0  0
    8.9352   49.9329   28.3736 C   0  0  0  0  0  0  0  0  0  0  0  0
   10.5857   48.5956   29.5185 C   0  0  0  0  0  0  0  0  0  0  0  0
    5.8933   50.4503   30.2601 O   0  0  0  0  0  1  0  0  0  0  0  0
    6.1675   50.3431   28.0213 O   0  0  0  0  0  0  0  0  0  0  0  0
   10.2439   49.4662   28.4876 C   0  0  0  0  0  0  0  0  0  0  0  0
    8.8075   40.1901   34.2071 O   0  0  0  0  0  0  0  0  0  0  0  0
   11.2381   40.7897   33.3686 O   0  0  0  0  0  0  0  0  0  0  0  0
   10.9194   40.6894   31.9947 C   0  0  0  0  0  0  0  0  0  0  0  0
   11.5171   39.3801   31.4396 C   0  0  0  0  0  0  0  0  0  0  0  0
   12.7478   39.0861   32.0733 O   0  0  0  0  0  0  0  0  0  0  0  0
   10.6031   38.1891   31.6666 C   0  0  0  0  0  0  0  0  0  0  0  0
   12.9335   37.6796   32.0279 C   0  0  0  0  0  0  0  0  0  0  0  0
    9.6396   38.0777   30.6456 O   0  0  0  0  0  0  0  0  0  0  0  0
   11.5739   37.0154   31.7057 C   0  0  0  0  0  0  0  0  0  0  0  0
   13.4903   37.2178   33.3231 N   0  0  0  0  0  0  0  0  0  0  0  0
   11.6211   36.3376   30.4695 O   0  0  0  0  0  0  0  0  0  0  0  0
   14.4761   36.3273   33.5725 C   0  0  0  0  0  0  0  0  0  0  0  0
   13.1179   37.6316   34.5684 C   0  0  0  0  0  0  0  0  0  0  0  0
   15.2063   35.6139   32.6737 N   0  0  0  0  0  0  0  0  0  0  0  0
   14.6734   36.2277   34.9179 C   0  0  0  0  0  0  0  0  0  0  0  0
   13.8225   37.0459   35.5779 N   0  0  0  0  0  0  0  0  0  0  0  0
   16.1636   34.7594   33.1546 C   0  0  0  0  0  0  0  0  0  0  0  0
   15.6515   35.3494   35.4129 C   0  0  0  0  0  0  0  0  0  0  0  0
   16.3791   34.6311   34.5041 N   0  0  0  0  0  0  0  0  0  0  0  0
   15.9001   35.1935   36.8088 N   0  0  0  0  0  0  0  0  0  0  0  0
    9.8123   44.9933   32.1501 H   0  0  0  0  0  0  0  0  0  0  0  0
   11.9214   45.7042   32.9809 H   0  0  0  0  0  0  0  0  0  0  0  0
   11.2759   46.1170   34.4983 H   0  0  0  0  0  0  0  0  0  0  0  0
    8.7935   45.7950   34.9643 H   0  0  0  0  0  0  0  0  0  0  0  0
    7.8368   44.9311   33.7127 H   0  0  0  0  0  0  0  0  0  0  0  0
    6.9706   48.9353   32.0235 H   0  0  0  0  0  0  0  0  0  0  0  0
    6.3080   47.8835   30.7289 H   0  0  0  0  0  0  0  0  0  0  0  0
    9.9245   47.4929   31.2093 H   0  0  0  0  0  0  0  0  0  0  0  0
    8.6948   50.6228   27.5744 H   0  0  0  0  0  0  0  0  0  0  0  0
   11.6037   48.2384   29.6077 H   0  0  0  0  0  0  0  0  0  0  0  0
   10.9963   49.7859   27.7782 H   0  0  0  0  0  0  0  0  0  0  0  0
   11.4013   41.5437   31.4731 H   0  0  0  0  0  0  0  0  0  0  0  0
    9.8316   40.7398   31.7544 H   0  0  0  0  0  0  0  0  0  0  0  0
   11.6982   39.5042   30.3470 H   0  0  0  0  0  0  0  0  0  0  0  0
   10.1090   38.2631   32.6649 H   0  0  0  0  0  0  0  0  0  0  0  0
   13.6656   37.4541   31.2207 H   0  0  0  0  0  0  0  0  0  0  0  0
    8.8965   38.6900   30.8851 H   0  0  0  0  0  0  0  0  0  0  0  0
   11.2846   36.3060   32.5175 H   0  0  0  0  0  0  0  0  0  0  0  0
   10.8524   35.7094   30.4590 H   0  0  0  0  0  0  0  0  0  0  0  0
   12.3353   38.3588   34.7439 H   0  0  0  0  0  0  0  0  0  0  0  0
   16.7570   34.1788   32.4619 H   0  0  0  0  0  0  0  0  0  0  0  0
   15.3529   35.7359   37.5136 H   0  0  0  0  0  0  0  0  0  0  0  0
   16.6360   34.5317   37.1413 H   0  0  0  0  0  0  0  0  0  0  0  0
  1  2  2  0
  1  3  1  0
  3  4  1  0
  4  5  1  0
  6  1  1  0
  7  6  1  0
  6  8  1  0
  8  9  1  0
  9 10  1  0
  9 11  2  0
 10 12  1  0
 12 13  1  0
 13 14  2  0
 15 13  1  0
 14 16  1  0
 14 17  1  0
 18 15  2  0
 16 19  1  0
 16 20  2  0
 17 21  2  0
 21 18  1  0
  4 22  2  0
  4 23  1  0
 24 23  1  0
 24 25  1  0
 25 26  1  0
 25 27  1  0
 26 28  1  0
 27 29  1  0
 27 30  1  0
 30 28  1  0
 28 31  1  0
 30 32  1  0
 33 31  1  0
 34 31  1  0
 35 33  2  0
 33 36  1  0
 37 34  2  0
 38 35  1  0
 36 39  2  0
 36 37  1  0
 40 38  2  0
 40 39  1  0
 39 41  1  0
  6 42  1  6
  7 43  1  0
  7 44  1  0
  8 45  1  0
  8 46  1  0
 12 47  1  0
 12 48  1  0
 15 49  1  0
 17 50  1  0
 18 51  1  0
 21 52  1  0
 24 53  1  0
 24 54  1  0
 25 55  1  0
 27 56  1  0
 28 57  1  0
 29 58  1  0
 30 59  1  0
 32 60  1  0
 34 61  1  0
 38 62  1  0
 41 63  1  0
 41 64  1  0
M  CHG  3   5  -1  16   1  19  -1
M  END
>  <EmbedRMS>  (400) 
0.08994173701921622

$$$$

     RDKit          3D

 64 67  0  0  0  0  0  0  0  0999 V2000
   10.2904   43.7672   33.8036 C   0  0  0  0  0  0  0  0  0  0  0  0
   11.4138   43.5781   34.3559 O   0  0  0  0  0  0  0  0  0  0  0  0
    9.3679   42.7297   33.6994 O   0  0  0  0  0  0  0  0  0  0  0  0
    9.8841   41.2327   34.2839 P   0  0  0  0  0  5  0  0  0  0  0  0
   10.3647   41.4693   35.8744 O   0  0  0  0  0  1  0  0  0  0  0  0
    9.9613   45.1130   33.2526 C   0  0  2  0  0  0  0  0  0  0  0  0
   11.0607   46.0547   33.4783 N   0  0  0  0  0  0  0  0  0  0  0  0
    8.6456   45.6653   33.8354 C   0  0  0  0  0  0  0  0  0  0  0  0
    8.6902   45.8317   35.3269 C   0  0  0  0  0  0  0  0  0  0  0  0
    8.7352   44.6970   36.1443 O   0  0  0  0  0  0  0  0  0  0  0  0
    8.6956   46.9885   35.8300 O   0  0  0  0  0  0  0  0  0  0  0  0
    8.7004   44.7536   37.5680 C   0  0  0  0  0  0  0  0  0  0  0  0
    7.3177   45.1254   38.0495 C   0  0  0  0  0  0  0  0  0  0  0  0
    6.1573   44.4080   37.6471 C   0  0  0  0  0  0  0  0  0  0  0  0
    7.1764   46.2444   38.8906 C   0  0  0  0  0  0  0  0  0  0  0  0
    6.2300   43.2473   36.7978 N   0  0  0  0  0  4  0  0  0  0  0  0
    4.8947   44.8565   38.0743 C   0  0  0  0  0  0  0  0  0  0  0  0
    5.9145   46.6616   39.3152 C   0  0  0  0  0  0  0  0  0  0  0  0
    5.1852   42.9476   35.9540 O   0  0  0  0  0  1  0  0  0  0  0  0
    7.1528   42.4171   36.9260 O   0  0  0  0  0  0  0  0  0  0  0  0
    4.7759   45.9719   38.9044 C   0  0  0  0  0  0  0  0  0  0  0  0
    8.8058   40.1908   34.2088 O   0  0  0  0  0  0  0  0  0  0  0  0
   11.2359   40.7886   33.3672 O   0  0  0  0  0  0  0  0  0  0  0  0
   10.9141   40.6847   31.9939 C   0  0  0  0  0  0  0  0  0  0  0  0
   11.5165   39.3774   31.4396 C   0  0  0  0  0  0  0  0  0  0  0  0
   12.7472   39.0855   32.0739 O   0  0  0  0  0  0  0  0  0  0  0  0
   10.6047   38.1867   31.6670 C   0  0  0  0  0  0  0  0  0  0  0  0
   12.9346   37.6791   32.0282 C   0  0  0  0  0  0  0  0  0  0  0  0
    9.6378   38.0918   30.6489 O   0  0  0  0  0  0  0  0  0  0  0  0
   11.5762   37.0129   31.7057 C   0  0  0  0  0  0  0  0  0  0  0  0
   13.4909   37.2177   33.3233 N   0  0  0  0  0  0  0  0  0  0  0  0
   11.6234   36.3371   30.4684 O   0  0  0  0  0  0  0  0  0  0  0  0
   14.4765   36.3272   33.5727 C   0  0  0  0  0  0  0  0  0  0  0  0
   13.1181   37.6316   34.5685 C   0  0  0  0  0  0  0  0  0  0  0  0
   15.2066   35.6138   32.6739 N   0  0  0  0  0  0  0  0  0  0  0  0
   14.6735   36.2276   34.9182 C   0  0  0  0  0  0  0  0  0  0  0  0
   13.8226   37.0458   35.5781 N   0  0  0  0  0  0  0  0  0  0  0  0
   16.1638   34.7593   33.1548 C   0  0  0  0  0  0  0  0  0  0  0  0
   15.6516   35.3493   35.4131 C   0  0  0  0  0  0  0  0  0  0  0  0
   16.3792   34.6309   34.5043 N   0  0  0  0  0  0  0  0  0  0  0  0
   15.9001   35.1936   36.8090 N   0  0  0  0  0  0  0  0  0  0  0  0
    9.8199   44.9997   32.1553 H   0  0  0  0  0  0  0  0  0  0  0  0
   11.2979   46.1038   34.4966 H   0  0  0  0  0  0  0  0  0  0  0  0
   11.9091   45.7242   32.9622 H   0  0  0  0  0  0  0  0  0  0  0  0
    7.8086   44.9798   33.5806 H   0  0  0  0  0  0  0  0  0  0  0  0
    8.4211   46.6441   33.3576 H   0  0  0  0  0  0  0  0  0  0  0  0
    9.4712   45.4709   37.9268 H   0  0  0  0  0  0  0  0  0  0  0  0
    8.9786   43.7622   37.9806 H   0  0  0  0  0  0  0  0  0  0  0  0
    8.0452   46.8059   39.2115 H   0  0  0  0  0  0  0  0  0  0  0  0
    3.9970   44.3298   37.7764 H   0  0  0  0  0  0  0  0  0  0  0  0
    5.8193   47.5265   39.9591 H   0  0  0  0  0  0  0  0  0  0  0  0
    3.7979   46.3003   39.2322 H   0  0  0  0  0  0  0  0  0  0  0  0
    9.8242   40.7213   31.7567 H   0  0  0  0  0  0  0  0  0  0  0  0
   11.3875   41.5416   31.4688 H   0  0  0  0  0  0  0  0  0  0  0  0
   11.6984   39.5017   30.3470 H   0  0  0  0  0  0  0  0  0  0  0  0
   10.1096   38.2767   32.6630 H   0  0  0  0  0  0  0  0  0  0  0  0
   13.6672   37.4545   31.2212 H   0  0  0  0  0  0  0  0  0  0  0  0
    8.9779   37.4158   30.9533 H   0  0  0  0  0  0  0  0  0  0  0  0
   11.2863   36.3041   32.5177 H   0  0  0  0  0  0  0  0  0  0  0  0
   10.8690   35.6918   30.4658 H   0  0  0  0  0  0  0  0  0  0  0  0
   12.3354   38.3586   34.7438 H   0  0  0  0  0  0  0  0  0  0  0  0
   16.7573   34.1787   32.4621 H   0  0  0  0  0  0  0  0  0  0  0  0
   15.3527   35.7361   37.5136 H   0  0  0  0  0  0  0  0  0  0  0  0
   16.6359   34.5318   37.1418 H   0  0  0  0  0  0  0  0  0  0  0  0
  1  2  2  0
  1  3  1  0
  3  4  1  0
  4  5  1  0
  6  1  1  0
  7  6  1  0
  6  8  1  0
  8  9  1  0
  9 10  1  0
  9 11  2  0
 10 12  1  0
 12 13  1  0
 13 14  2  0
 15 13  1  0
 14 16  1  0
 14 17  1  0
 18 15  2  0
 16 19  1  0
 16 20  2  0
 17 21  2  0
 21 18  1  0
  4 22  2  0
  4 23  1  0
 24 23  1  0
 24 25  1  0
 25 26  1  0
 25 27  1  0
 26 28  1  0
 27 29  1  0
 27 30  1  0
 30 28  1  0
 28 31  1  0
 30 32  1  0
 33 31  1  0
 34 31  1  0
 35 33  2  0
 33 36  1  0
 37 34  2  0
 38 35  1  0
 36 39  2  0
 36 37  1  0
 40 38  2  0
 40 39  1  0
 39 41  1  0
  6 42  1  6
  7 43  1  0
  7 44  1  0
  8 45  1  0
  8 46  1  0
 12 47  1  0
 12 48  1  0
 15 49  1  0
 17 50  1  0
 18 51  1  0
 21 52  1  0
 24 53  1  0
 24 54  1  0
 25 55  1  0
 27 56  1  0
 28 57  1  0
 29 58  1  0
 30 59  1  0
 32 60  1  0
 34 61  1  0
 38 62  1  0
 41 63  1  0
 41 64  1  0
M  CHG  3   5  -1  16   1  19  -1
M  END
>  <EmbedRMS>  (401) 
0.08972182140197385

$$$$

     RDKit          3D

 64 67  0  0  0  0  0  0  0  0999 V2000
   10.2829   43.7755   33.8078 C   0  0  0  0  0  0  0  0  0  0  0  0
   11.4085   43.5913   34.3579 O   0  0  0  0  0  0  0  0  0  0  0  0
    9.3667   42.7319   33.7013 O   0  0  0  0  0  0  0  0  0  0  0  0
    9.8863   41.2345   34.2832 P   0  0  0  0  0  5  0  0  0  0  0  0
   10.3677   41.4692   35.8736 O   0  0  0  0  0  1  0  0  0  0  0  0
    9.9540   45.1114   33.2428 C   0  0  2  0  0  0  0  0  0  0  0  0
   11.0721   46.0272   33.4851 N   0  0  0  0  0  0  0  0  0  0  0  0
    8.6399   45.6446   33.8512 C   0  0  0  0  0  0  0  0  0  0  0  0
    8.2204   46.9285   33.2057 C   0  0  0  0  0  0  0  0  0  0  0  0
    7.7238   46.9084   31.8998 O   0  0  0  0  0  0  0  0  0  0  0  0
    8.3418   48.0165   33.8324 O   0  0  0  0  0  0  0  0  0  0  0  0
    7.3271   48.0883   31.2099 C   0  0  0  0  0  0  0  0  0  0  0  0
    6.8425   47.7219   29.8316 C   0  0  0  0  0  0  0  0  0  0  0  0
    5.5069   47.3048   29.5822 C   0  0  0  0  0  0  0  0  0  0  0  0
    7.7528   47.7904   28.7615 C   0  0  0  0  0  0  0  0  0  0  0  0
    4.5409   47.1608   30.6394 N   0  0  0  0  0  4  0  0  0  0  0  0
    5.1131   47.0291   28.2606 C   0  0  0  0  0  0  0  0  0  0  0  0
    7.3452   47.4947   27.4602 C   0  0  0  0  0  0  0  0  0  0  0  0
    3.2039   47.3555   30.3785 O   0  0  0  0  0  1  0  0  0  0  0  0
    4.8725   46.6875   31.7455 O   0  0  0  0  0  0  0  0  0  0  0  0
    6.0262   47.1224   27.2092 C   0  0  0  0  0  0  0  0  0  0  0  0
    8.8086   40.1917   34.2082 O   0  0  0  0  0  0  0  0  0  0  0  0
   11.2376   40.7913   33.3655 O   0  0  0  0  0  0  0  0  0  0  0  0
   10.9141   40.6851   31.9929 C   0  0  0  0  0  0  0  0  0  0  0  0
   11.5166   39.3773   31.4394 C   0  0  0  0  0  0  0  0  0  0  0  0
   12.7471   39.0855   32.0740 O   0  0  0  0  0  0  0  0  0  0  0  0
   10.6047   38.1868   31.6670 C   0  0  0  0  0  0  0  0  0  0  0  0
   12.9345   37.6791   32.0283 C   0  0  0  0  0  0  0  0  0  0  0  0
    9.6378   38.0917   30.6489 O   0  0  0  0  0  0  0  0  0  0  0  0
   11.5761   37.0129   31.7057 C   0  0  0  0  0  0  0  0  0  0  0  0
   13.4909   37.2177   33.3234 N   0  0  0  0  0  0  0  0  0  0  0  0
   11.6234   36.3371   30.4684 O   0  0  0  0  0  0  0  0  0  0  0  0
   14.4764   36.3271   33.5727 C   0  0  0  0  0  0  0  0  0  0  0  0
   13.1182   37.6315   34.5686 C   0  0  0  0  0  0  0  0  0  0  0  0
   15.2065   35.6137   32.6739 N   0  0  0  0  0  0  0  0  0  0  0  0
   14.6735   36.2275   34.9182 C   0  0  0  0  0  0  0  0  0  0  0  0
   13.8227   37.0457   35.5782 N   0  0  0  0  0  0  0  0  0  0  0  0
   16.1638   34.7593   33.1547 C   0  0  0  0  0  0  0  0  0  0  0  0
   15.6517   35.3493   35.4131 C   0  0  0  0  0  0  0  0  0  0  0  0
   16.3793   34.6310   34.5042 N   0  0  0  0  0  0  0  0  0  0  0  0
   15.9003   35.1935   36.8089 N   0  0  0  0  0  0  0  0  0  0  0  0
    9.8235   44.9838   32.1448 H   0  0  0  0  0  0  0  0  0  0  0  0
   10.9377   46.8883   32.9071 H   0  0  0  0  0  0  0  0  0  0  0  0
   11.0789   46.3204   34.4900 H   0  0  0  0  0  0  0  0  0  0  0  0
    7.8258   44.9040   33.6946 H   0  0  0  0  0  0  0  0  0  0  0  0
    8.7550   45.7899   34.9483 H   0  0  0  0  0  0  0  0  0  0  0  0
    6.5291   48.6159   31.7750 H   0  0  0  0  0  0  0  0  0  0  0  0
    8.1920   48.7848   31.1439 H   0  0  0  0  0  0  0  0  0  0  0  0
    8.7811   48.0847   28.9332 H   0  0  0  0  0  0  0  0  0  0  0  0
    4.0987   46.7183   28.0449 H   0  0  0  0  0  0  0  0  0  0  0  0
    8.0533   47.5586   26.6440 H   0  0  0  0  0  0  0  0  0  0  0  0
    5.7117   46.8968   26.1983 H   0  0  0  0  0  0  0  0  0  0  0  0
    9.8240   40.7210   31.7567 H   0  0  0  0  0  0  0  0  0  0  0  0
   11.3867   41.5415   31.4660 H   0  0  0  0  0  0  0  0  0  0  0  0
   11.6988   39.5013   30.3468 H   0  0  0  0  0  0  0  0  0  0  0  0
   10.1096   38.2772   32.6629 H   0  0  0  0  0  0  0  0  0  0  0  0
   13.6672   37.4546   31.2214 H   0  0  0  0  0  0  0  0  0  0  0  0
    8.9779   37.4158   30.9535 H   0  0  0  0  0  0  0  0  0  0  0  0
   11.2862   36.3041   32.5177 H   0  0  0  0  0  0  0  0  0  0  0  0
   10.8689   35.6919   30.4658 H   0  0  0  0  0  0  0  0  0  0  0  0
   12.3355   38.3586   34.7441 H   0  0  0  0  0  0  0  0  0  0  0  0
   16.7573   34.1786   32.4621 H   0  0  0  0  0  0  0  0  0  0  0  0
   16.6361   34.5316   37.1415 H   0  0  0  0  0  0  0  0  0  0  0  0
   15.3530   35.7359   37.5137 H   0  0  0  0  0  0  0  0  0  0  0  0
  1  2  2  0
  1  3  1  0
  3  4  1  0
  4  5  1  0
  6  1  1  0
  7  6  1  0
  6  8  1  0
  8  9  1  0
  9 10  1  0
  9 11  2  0
 10 12  1  0
 12 13  1  0
 13 14  2  0
 15 13  1  0
 14 16  1  0
 14 17  1  0
 18 15  2  0
 16 19  1  0
 16 20  2  0
 17 21  2  0
 21 18  1  0
  4 22  2  0
  4 23  1  0
 24 23  1  0
 24 25  1  0
 25 26  1  0
 25 27  1  0
 26 28  1  0
 27 29  1  0
 27 30  1  0
 30 28  1  0
 28 31  1  0
 30 32  1  0
 33 31  1  0
 34 31  1  0
 35 33  2  0
 33 36  1  0
 37 34  2  0
 38 35  1  0
 36 39  2  0
 36 37  1  0
 40 38  2  0
 40 39  1  0
 39 41  1  0
  6 42  1  6
  7 43  1  0
  7 44  1  0
  8 45  1  0
  8 46  1  0
 12 47  1  0
 12 48  1  0
 15 49  1  0
 17 50  1  0
 18 51  1  0
 21 52  1  0
 24 53  1  0
 24 54  1  0
 25 55  1  0
 27 56  1  0
 28 57  1  0
 29 58  1  0
 30 59  1  0
 32 60  1  0
 34 61  1  0
 38 62  1  0
 41 63  1  0
 41 64  1  0
M  CHG  3   5  -1  16   1  19  -1
M  END
>  <EmbedRMS>  (402) 
0.08872021710227543

$$$$

     RDKit          3D

 64 67  0  0  0  0  0  0  0  0999 V2000
   10.2857   43.7714   33.8034 C   0  0  0  0  0  0  0  0  0  0  0  0
   11.4085   43.5869   34.3591 O   0  0  0  0  0  0  0  0  0  0  0  0
    9.3660   42.7311   33.7013 O   0  0  0  0  0  0  0  0  0  0  0  0
    9.8851   41.2342   34.2854 P   0  0  0  0  0  5  0  0  0  0  0  0
   10.3686   41.4683   35.8748 O   0  0  0  0  0  1  0  0  0  0  0  0
    9.9611   45.1113   33.2385 C   0  0  2  0  0  0  0  0  0  0  0  0
   11.0655   46.0390   33.4892 N   0  0  0  0  0  0  0  0  0  0  0  0
    8.6371   45.6626   33.8125 C   0  0  0  0  0  0  0  0  0  0  0  0
    8.6618   45.9407   35.2914 C   0  0  0  0  0  0  0  0  0  0  0  0
    9.6945   45.4404   36.0959 O   0  0  0  0  0  0  0  0  0  0  0  0
    7.7082   46.5857   35.8059 O   0  0  0  0  0  0  0  0  0  0  0  0
    9.6918   45.5044   37.5222 C   0  0  0  0  0  0  0  0  0  0  0  0
    9.0754   44.2726   38.1597 C   0  0  0  0  0  0  0  0  0  0  0  0
    9.2998   43.9752   39.5333 C   0  0  0  0  0  0  0  0  0  0  0  0
    8.2806   43.3907   37.3959 C   0  0  0  0  0  0  0  0  0  0  0  0
   10.0648   44.8459   40.3875 N   0  0  0  0  0  4  0  0  0  0  0  0
    8.7720   42.7906   40.0768 C   0  0  0  0  0  0  0  0  0  0  0  0
    7.7547   42.2291   37.9617 C   0  0  0  0  0  0  0  0  0  0  0  0
   10.7739   44.3215   41.4438 O   0  0  0  0  0  1  0  0  0  0  0  0
    9.9576   46.0858   40.2950 O   0  0  0  0  0  0  0  0  0  0  0  0
    8.0053   41.9261   39.2968 C   0  0  0  0  0  0  0  0  0  0  0  0
    8.8078   40.1912   34.2100 O   0  0  0  0  0  0  0  0  0  0  0  0
   11.2374   40.7907   33.3697 O   0  0  0  0  0  0  0  0  0  0  0  0
   10.9180   40.6905   31.9964 C   0  0  0  0  0  0  0  0  0  0  0  0
   11.5172   39.3825   31.4413 C   0  0  0  0  0  0  0  0  0  0  0  0
   12.7492   39.0894   32.0757 O   0  0  0  0  0  0  0  0  0  0  0  0
   10.6035   38.1899   31.6660 C   0  0  0  0  0  0  0  0  0  0  0  0
   12.9400   37.6835   32.0277 C   0  0  0  0  0  0  0  0  0  0  0  0
    9.6376   38.0784   30.6474 O   0  0  0  0  0  0  0  0  0  0  0  0
   11.5803   37.0204   31.6937 C   0  0  0  0  0  0  0  0  0  0  0  0
   13.4901   37.2178   33.3237 N   0  0  0  0  0  0  0  0  0  0  0  0
   11.6118   36.3194   30.4680 O   0  0  0  0  0  0  0  0  0  0  0  0
   14.4758   36.3272   33.5731 C   0  0  0  0  0  0  0  0  0  0  0  0
   13.1175   37.6318   34.5688 C   0  0  0  0  0  0  0  0  0  0  0  0
   15.2064   35.6142   32.6742 N   0  0  0  0  0  0  0  0  0  0  0  0
   14.6729   36.2274   34.9184 C   0  0  0  0  0  0  0  0  0  0  0  0
   13.8221   37.0458   35.5784 N   0  0  0  0  0  0  0  0  0  0  0  0
   16.1636   34.7597   33.1549 C   0  0  0  0  0  0  0  0  0  0  0  0
   15.6513   35.3493   35.4133 C   0  0  0  0  0  0  0  0  0  0  0  0
   16.3791   34.6312   34.5043 N   0  0  0  0  0  0  0  0  0  0  0  0
   15.9001   35.1935   36.8091 N   0  0  0  0  0  0  0  0  0  0  0  0
    9.8329   44.9908   32.1391 H   0  0  0  0  0  0  0  0  0  0  0  0
   10.8071   46.9746   33.0990 H   0  0  0  0  0  0  0  0  0  0  0  0
   11.8951   45.7238   32.9343 H   0  0  0  0  0  0  0  0  0  0  0  0
    8.3829   46.6051   33.2806 H   0  0  0  0  0  0  0  0  0  0  0  0
    7.8162   44.9430   33.6030 H   0  0  0  0  0  0  0  0  0  0  0  0
    9.1649   46.4189   37.8695 H   0  0  0  0  0  0  0  0  0  0  0  0
   10.7511   45.5783   37.8467 H   0  0  0  0  0  0  0  0  0  0  0  0
    8.0737   43.5771   36.3524 H   0  0  0  0  0  0  0  0  0  0  0  0
    8.9394   42.5436   41.1176 H   0  0  0  0  0  0  0  0  0  0  0  0
    7.1572   41.5574   37.3588 H   0  0  0  0  0  0  0  0  0  0  0  0
    7.5992   41.0216   39.7311 H   0  0  0  0  0  0  0  0  0  0  0  0
   11.3985   41.5456   31.4747 H   0  0  0  0  0  0  0  0  0  0  0  0
    9.8300   40.7392   31.7567 H   0  0  0  0  0  0  0  0  0  0  0  0
   11.6986   39.5093   30.3491 H   0  0  0  0  0  0  0  0  0  0  0  0
   10.1128   38.2587   32.6664 H   0  0  0  0  0  0  0  0  0  0  0  0
   13.6800   37.4630   31.2266 H   0  0  0  0  0  0  0  0  0  0  0  0
    8.8949   38.6903   30.8894 H   0  0  0  0  0  0  0  0  0  0  0  0
   11.2831   36.3060   32.4929 H   0  0  0  0  0  0  0  0  0  0  0  0
   11.8859   36.9590   29.7593 H   0  0  0  0  0  0  0  0  0  0  0  0
   12.3360   38.3601   34.7442 H   0  0  0  0  0  0  0  0  0  0  0  0
   16.7572   34.1793   32.4621 H   0  0  0  0  0  0  0  0  0  0  0  0
   16.6361   34.5318   37.1416 H   0  0  0  0  0  0  0  0  0  0  0  0
   15.3528   35.7357   37.5140 H   0  0  0  0  0  0  0  0  0  0  0  0
  1  2  2  0
  1  3  1  0
  3  4  1  0
  4  5  1  0
  6  1  1  0
  7  6  1  0
  6  8  1  0
  8  9  1  0
  9 10  1  0
  9 11  2  0
 10 12  1  0
 12 13  1  0
 13 14  2  0
 15 13  1  0
 14 16  1  0
 14 17  1  0
 18 15  2  0
 16 19  1  0
 16 20  2  0
 17 21  2  0
 21 18  1  0
  4 22  2  0
  4 23  1  0
 24 23  1  0
 24 25  1  0
 25 26  1  0
 25 27  1  0
 26 28  1  0
 27 29  1  0
 27 30  1  0
 30 28  1  0
 28 31  1  0
 30 32  1  0
 33 31  1  0
 34 31  1  0
 35 33  2  0
 33 36  1  0
 37 34  2  0
 38 35  1  0
 36 39  2  0
 36 37  1  0
 40 38  2  0
 40 39  1  0
 39 41  1  0
  6 42  1  6
  7 43  1  0
  7 44  1  0
  8 45  1  0
  8 46  1  0
 12 47  1  0
 12 48  1  0
 15 49  1  0
 17 50  1  0
 18 51  1  0
 21 52  1  0
 24 53  1  0
 24 54  1  0
 25 55  1  0
 27 56  1  0
 28 57  1  0
 29 58  1  0
 30 59  1  0
 32 60  1  0
 34 61  1  0
 38 62  1  0
 41 63  1  0
 41 64  1  0
M  CHG  3   5  -1  16   1  19  -1
M  END
>  <EmbedRMS>  (403) 
0.08822072534717106

$$$$

     RDKit          3D

 64 67  0  0  0  0  0  0  0  0999 V2000
   10.2858   43.7712   33.8029 C   0  0  0  0  0  0  0  0  0  0  0  0
   11.4086   43.5868   34.3588 O   0  0  0  0  0  0  0  0  0  0  0  0
    9.3659   42.7311   33.7014 O   0  0  0  0  0  0  0  0  0  0  0  0
    9.8850   41.2343   34.2855 P   0  0  0  0  0  5  0  0  0  0  0  0
   10.3688   41.4684   35.8748 O   0  0  0  0  0  1  0  0  0  0  0  0
    9.9615   45.1112   33.2378 C   0  0  2  0  0  0  0  0  0  0  0  0
   11.0651   46.0392   33.4902 N   0  0  0  0  0  0  0  0  0  0  0  0
    8.6362   45.6621   33.8094 C   0  0  0  0  0  0  0  0  0  0  0  0
    8.6579   45.9385   35.2886 C   0  0  0  0  0  0  0  0  0  0  0  0
    9.6772   45.4184   36.0975 O   0  0  0  0  0  0  0  0  0  0  0  0
    7.7122   46.5981   35.7990 O   0  0  0  0  0  0  0  0  0  0  0  0
    9.6617   45.4626   37.5245 C   0  0  0  0  0  0  0  0  0  0  0  0
    9.0851   44.1982   38.1325 C   0  0  0  0  0  0  0  0  0  0  0  0
    9.3889   43.8307   39.4717 C   0  0  0  0  0  0  0  0  0  0  0  0
    8.2376   43.3623   37.3745 C   0  0  0  0  0  0  0  0  0  0  0  0
   10.1923   44.6691   40.3223 N   0  0  0  0  0  4  0  0  0  0  0  0
    8.8939   42.6169   39.9829 C   0  0  0  0  0  0  0  0  0  0  0  0
    7.7453   42.1707   37.9076 C   0  0  0  0  0  0  0  0  0  0  0  0
   10.0241   46.0344   40.3186 O   0  0  0  0  0  1  0  0  0  0  0  0
   10.9234   44.1573   41.1954 O   0  0  0  0  0  0  0  0  0  0  0  0
    8.0796   41.7943   39.2054 C   0  0  0  0  0  0  0  0  0  0  0  0
    8.8077   40.1912   34.2102 O   0  0  0  0  0  0  0  0  0  0  0  0
   11.2373   40.7907   33.3698 O   0  0  0  0  0  0  0  0  0  0  0  0
   10.9179   40.6905   31.9964 C   0  0  0  0  0  0  0  0  0  0  0  0
   11.5171   39.3825   31.4414 C   0  0  0  0  0  0  0  0  0  0  0  0
   12.7492   39.0894   32.0758 O   0  0  0  0  0  0  0  0  0  0  0  0
   10.6034   38.1899   31.6660 C   0  0  0  0  0  0  0  0  0  0  0  0
   12.9400   37.6835   32.0277 C   0  0  0  0  0  0  0  0  0  0  0  0
    9.6376   38.0784   30.6474 O   0  0  0  0  0  0  0  0  0  0  0  0
   11.5803   37.0204   31.6937 C   0  0  0  0  0  0  0  0  0  0  0  0
   13.4901   37.2178   33.3237 N   0  0  0  0  0  0  0  0  0  0  0  0
   11.6118   36.3194   30.4680 O   0  0  0  0  0  0  0  0  0  0  0  0
   14.4758   36.3272   33.5731 C   0  0  0  0  0  0  0  0  0  0  0  0
   13.1175   37.6318   34.5688 C   0  0  0  0  0  0  0  0  0  0  0  0
   15.2064   35.6142   32.6742 N   0  0  0  0  0  0  0  0  0  0  0  0
   14.6729   36.2274   34.9184 C   0  0  0  0  0  0  0  0  0  0  0  0
   13.8221   37.0458   35.5784 N   0  0  0  0  0  0  0  0  0  0  0  0
   16.1636   34.7597   33.1549 C   0  0  0  0  0  0  0  0  0  0  0  0
   15.6513   35.3493   35.4133 C   0  0  0  0  0  0  0  0  0  0  0  0
   16.3791   34.6312   34.5043 N   0  0  0  0  0  0  0  0  0  0  0  0
   15.9001   35.1935   36.8091 N   0  0  0  0  0  0  0  0  0  0  0  0
    9.8351   44.9907   32.1382 H   0  0  0  0  0  0  0  0  0  0  0  0
   10.8069   46.9748   33.0998 H   0  0  0  0  0  0  0  0  0  0  0  0
   11.8956   45.7244   32.9364 H   0  0  0  0  0  0  0  0  0  0  0  0
    8.3832   46.6049   33.2775 H   0  0  0  0  0  0  0  0  0  0  0  0
    7.8157   44.9427   33.5977 H   0  0  0  0  0  0  0  0  0  0  0  0
    9.1000   46.3502   37.8865 H   0  0  0  0  0  0  0  0  0  0  0  0
   10.7163   45.5703   37.8544 H   0  0  0  0  0  0  0  0  0  0  0  0
    7.9637   43.6096   36.3594 H   0  0  0  0  0  0  0  0  0  0  0  0
    9.1231   42.3162   40.9975 H   0  0  0  0  0  0  0  0  0  0  0  0
    7.1080   41.5334   37.3081 H   0  0  0  0  0  0  0  0  0  0  0  0
    7.6992   40.8671   39.6142 H   0  0  0  0  0  0  0  0  0  0  0  0
    9.8299   40.7391   31.7568 H   0  0  0  0  0  0  0  0  0  0  0  0
   11.3983   41.5456   31.4747 H   0  0  0  0  0  0  0  0  0  0  0  0
   11.6985   39.5094   30.3491 H   0  0  0  0  0  0  0  0  0  0  0  0
   10.1128   38.2587   32.6664 H   0  0  0  0  0  0  0  0  0  0  0  0
   13.6800   37.4631   31.2266 H   0  0  0  0  0  0  0  0  0  0  0  0
    8.8949   38.6904   30.8893 H   0  0  0  0  0  0  0  0  0  0  0  0
   11.2831   36.3060   32.4929 H   0  0  0  0  0  0  0  0  0  0  0  0
   11.8859   36.9591   29.7593 H   0  0  0  0  0  0  0  0  0  0  0  0
   12.3360   38.3601   34.7442 H   0  0  0  0  0  0  0  0  0  0  0  0
   16.7572   34.1793   32.4621 H   0  0  0  0  0  0  0  0  0  0  0  0
   15.3528   35.7356   37.5140 H   0  0  0  0  0  0  0  0  0  0  0  0
   16.6362   34.5318   37.1415 H   0  0  0  0  0  0  0  0  0  0  0  0
  1  2  2  0
  1  3  1  0
  3  4  1  0
  4  5  1  0
  6  1  1  0
  7  6  1  0
  6  8  1  0
  8  9  1  0
  9 10  1  0
  9 11  2  0
 10 12  1  0
 12 13  1  0
 13 14  2  0
 15 13  1  0
 14 16  1  0
 14 17  1  0
 18 15  2  0
 16 19  1  0
 16 20  2  0
 17 21  2  0
 21 18  1  0
  4 22  2  0
  4 23  1  0
 24 23  1  0
 24 25  1  0
 25 26  1  0
 25 27  1  0
 26 28  1  0
 27 29  1  0
 27 30  1  0
 30 28  1  0
 28 31  1  0
 30 32  1  0
 33 31  1  0
 34 31  1  0
 35 33  2  0
 33 36  1  0
 37 34  2  0
 38 35  1  0
 36 39  2  0
 36 37  1  0
 40 38  2  0
 40 39  1  0
 39 41  1  0
  6 42  1  6
  7 43  1  0
  7 44  1  0
  8 45  1  0
  8 46  1  0
 12 47  1  0
 12 48  1  0
 15 49  1  0
 17 50  1  0
 18 51  1  0
 21 52  1  0
 24 53  1  0
 24 54  1  0
 25 55  1  0
 27 56  1  0
 28 57  1  0
 29 58  1  0
 30 59  1  0
 32 60  1  0
 34 61  1  0
 38 62  1  0
 41 63  1  0
 41 64  1  0
M  CHG  3   5  -1  16   1  19  -1
M  END
>  <EmbedRMS>  (404) 
0.08820306398378358

$$$$

     RDKit          3D

 64 67  0  0  0  0  0  0  0  0999 V2000
   10.2863   43.7716   33.8039 C   0  0  0  0  0  0  0  0  0  0  0  0
   11.4115   43.5869   34.3543 O   0  0  0  0  0  0  0  0  0  0  0  0
    9.3672   42.7309   33.6998 O   0  0  0  0  0  0  0  0  0  0  0  0
    9.8851   41.2343   34.2847 P   0  0  0  0  0  5  0  0  0  0  0  0
   10.3653   41.4710   35.8751 O   0  0  0  0  0  1  0  0  0  0  0  0
    9.9564   45.1118   33.2473 C   0  0  2  0  0  0  0  0  0  0  0  0
   11.0672   46.0363   33.4856 N   0  0  0  0  0  0  0  0  0  0  0  0
    8.6229   45.6577   33.8069 C   0  0  0  0  0  0  0  0  0  0  0  0
    8.6167   45.7644   35.3036 C   0  0  0  0  0  0  0  0  0  0  0  0
    8.3914   44.6168   36.0719 O   0  0  0  0  0  0  0  0  0  0  0  0
    8.8402   46.8766   35.8539 O   0  0  0  0  0  0  0  0  0  0  0  0
    8.4052   44.6063   37.4981 C   0  0  0  0  0  0  0  0  0  0  0  0
    7.2046   45.3391   38.0525 C   0  0  0  0  0  0  0  0  0  0  0  0
    7.3087   46.3509   39.0441 C   0  0  0  0  0  0  0  0  0  0  0  0
    5.9285   44.9251   37.6294 C   0  0  0  0  0  0  0  0  0  0  0  0
    8.5775   46.8262   39.5172 N   0  0  0  0  0  4  0  0  0  0  0  0
    6.1369   46.9036   39.5879 C   0  0  0  0  0  0  0  0  0  0  0  0
    4.7765   45.5002   38.1677 C   0  0  0  0  0  0  0  0  0  0  0  0
    8.7488   47.0843   40.8576 O   0  0  0  0  0  1  0  0  0  0  0  0
    9.4247   47.2579   38.7091 O   0  0  0  0  0  0  0  0  0  0  0  0
    4.8804   46.4851   39.1481 C   0  0  0  0  0  0  0  0  0  0  0  0
    8.8075   40.1916   34.2093 O   0  0  0  0  0  0  0  0  0  0  0  0
   11.2369   40.7896   33.3689 O   0  0  0  0  0  0  0  0  0  0  0  0
   10.9159   40.6889   31.9956 C   0  0  0  0  0  0  0  0  0  0  0  0
   11.5251   39.3873   31.4367 C   0  0  0  0  0  0  0  0  0  0  0  0
   12.7486   39.0880   32.0804 O   0  0  0  0  0  0  0  0  0  0  0  0
   10.6100   38.1909   31.6471 C   0  0  0  0  0  0  0  0  0  0  0  0
   12.9348   37.6808   32.0292 C   0  0  0  0  0  0  0  0  0  0  0  0
    9.6126   38.0875   30.6547 O   0  0  0  0  0  0  0  0  0  0  0  0
   11.5767   37.0133   31.7026 C   0  0  0  0  0  0  0  0  0  0  0  0
   13.4901   37.2165   33.3236 N   0  0  0  0  0  0  0  0  0  0  0  0
   11.6321   36.3231   30.4741 O   0  0  0  0  0  0  0  0  0  0  0  0
   14.4762   36.3266   33.5728 C   0  0  0  0  0  0  0  0  0  0  0  0
   13.1179   37.6307   34.5689 C   0  0  0  0  0  0  0  0  0  0  0  0
   15.2065   35.6135   32.6739 N   0  0  0  0  0  0  0  0  0  0  0  0
   14.6736   36.2272   34.9182 C   0  0  0  0  0  0  0  0  0  0  0  0
   13.8228   37.0453   35.5783 N   0  0  0  0  0  0  0  0  0  0  0  0
   16.1640   34.7592   33.1547 C   0  0  0  0  0  0  0  0  0  0  0  0
   15.6518   35.3491   35.4131 C   0  0  0  0  0  0  0  0  0  0  0  0
   16.3794   34.6309   34.5042 N   0  0  0  0  0  0  0  0  0  0  0  0
   15.9004   35.1933   36.8089 N   0  0  0  0  0  0  0  0  0  0  0  0
    9.8389   44.9895   32.1482 H   0  0  0  0  0  0  0  0  0  0  0  0
   11.1542   46.2382   34.5083 H   0  0  0  0  0  0  0  0  0  0  0  0
   10.8570   46.9421   33.0066 H   0  0  0  0  0  0  0  0  0  0  0  0
    7.7916   44.9884   33.4961 H   0  0  0  0  0  0  0  0  0  0  0  0
    8.4165   46.6554   33.3617 H   0  0  0  0  0  0  0  0  0  0  0  0
    9.3734   45.0006   37.8616 H   0  0  0  0  0  0  0  0  0  0  0  0
    8.3521   43.5505   37.8377 H   0  0  0  0  0  0  0  0  0  0  0  0
    5.8257   44.1433   36.8865 H   0  0  0  0  0  0  0  0  0  0  0  0
    6.1988   47.6748   40.3455 H   0  0  0  0  0  0  0  0  0  0  0  0
    3.8010   45.1730   37.8316 H   0  0  0  0  0  0  0  0  0  0  0  0
    3.9857   46.9253   39.5689 H   0  0  0  0  0  0  0  0  0  0  0  0
   11.3846   41.5507   31.4741 H   0  0  0  0  0  0  0  0  0  0  0  0
    9.8259   40.7204   31.7582 H   0  0  0  0  0  0  0  0  0  0  0  0
   11.7271   39.5289   30.3504 H   0  0  0  0  0  0  0  0  0  0  0  0
   10.1121   38.2730   32.6391 H   0  0  0  0  0  0  0  0  0  0  0  0
   13.6685   37.4592   31.2224 H   0  0  0  0  0  0  0  0  0  0  0  0
   10.0514   38.1110   29.7648 H   0  0  0  0  0  0  0  0  0  0  0  0
   11.2801   36.3128   32.5195 H   0  0  0  0  0  0  0  0  0  0  0  0
   10.8625   35.6961   30.4645 H   0  0  0  0  0  0  0  0  0  0  0  0
   12.3356   38.3581   34.7445 H   0  0  0  0  0  0  0  0  0  0  0  0
   16.7574   34.1787   32.4619 H   0  0  0  0  0  0  0  0  0  0  0  0
   15.3531   35.7355   37.5138 H   0  0  0  0  0  0  0  0  0  0  0  0
   16.6364   34.5315   37.1415 H   0  0  0  0  0  0  0  0  0  0  0  0
  1  2  2  0
  1  3  1  0
  3  4  1  0
  4  5  1  0
  6  1  1  0
  7  6  1  0
  6  8  1  0
  8  9  1  0
  9 10  1  0
  9 11  2  0
 10 12  1  0
 12 13  1  0
 13 14  2  0
 15 13  1  0
 14 16  1  0
 14 17  1  0
 18 15  2  0
 16 19  1  0
 16 20  2  0
 17 21  2  0
 21 18  1  0
  4 22  2  0
  4 23  1  0
 24 23  1  0
 24 25  1  0
 25 26  1  0
 25 27  1  0
 26 28  1  0
 27 29  1  0
 27 30  1  0
 30 28  1  0
 28 31  1  0
 30 32  1  0
 33 31  1  0
 34 31  1  0
 35 33  2  0
 33 36  1  0
 37 34  2  0
 38 35  1  0
 36 39  2  0
 36 37  1  0
 40 38  2  0
 40 39  1  0
 39 41  1  0
  6 42  1  6
  7 43  1  0
  7 44  1  0
  8 45  1  0
  8 46  1  0
 12 47  1  0
 12 48  1  0
 15 49  1  0
 17 50  1  0
 18 51  1  0
 21 52  1  0
 24 53  1  0
 24 54  1  0
 25 55  1  0
 27 56  1  0
 28 57  1  0
 29 58  1  0
 30 59  1  0
 32 60  1  0
 34 61  1  0
 38 62  1  0
 41 63  1  0
 41 64  1  0
M  CHG  3   5  -1  16   1  19  -1
M  END
>  <EmbedRMS>  (405) 
0.08802191799819158

$$$$

     RDKit          3D

 64 67  0  0  0  0  0  0  0  0999 V2000
   10.2862   43.7710   33.8099 C   0  0  0  0  0  0  0  0  0  0  0  0
   11.4101   43.5818   34.3616 O   0  0  0  0  0  0  0  0  0  0  0  0
    9.3668   42.7308   33.7021 O   0  0  0  0  0  0  0  0  0  0  0  0
    9.8847   41.2330   34.2845 P   0  0  0  0  0  5  0  0  0  0  0  0
   10.3648   41.4677   35.8752 O   0  0  0  0  0  1  0  0  0  0  0  0
    9.9608   45.1122   33.2472 C   0  0  2  0  0  0  0  0  0  0  0  0
   11.0654   46.0479   33.4749 N   0  0  0  0  0  0  0  0  0  0  0  0
    8.6640   45.6565   33.8699 C   0  0  0  0  0  0  0  0  0  0  0  0
    8.2878   46.9703   33.2599 C   0  0  0  0  0  0  0  0  0  0  0  0
    8.7138   48.1562   33.8678 O   0  0  0  0  0  0  0  0  0  0  0  0
    7.6353   46.9952   32.1813 O   0  0  0  0  0  0  0  0  0  0  0  0
    8.5294   49.4466   33.2882 C   0  0  0  0  0  0  0  0  0  0  0  0
    9.4118   49.6149   32.0716 C   0  0  0  0  0  0  0  0  0  0  0  0
    8.9218   50.0732   30.8197 C   0  0  0  0  0  0  0  0  0  0  0  0
   10.7922   49.3896   32.2242 C   0  0  0  0  0  0  0  0  0  0  0  0
    7.5264   50.3182   30.5914 N   0  0  0  0  0  4  0  0  0  0  0  0
    9.8264   50.3019   29.7692 C   0  0  0  0  0  0  0  0  0  0  0  0
   11.6722   49.6025   31.1625 C   0  0  0  0  0  0  0  0  0  0  0  0
    7.1410   51.4216   29.8658 O   0  0  0  0  0  1  0  0  0  0  0  0
    6.6904   49.4164   30.8033 O   0  0  0  0  0  0  0  0  0  0  0  0
   11.1907   50.0616   29.9381 C   0  0  0  0  0  0  0  0  0  0  0  0
    8.8073   40.1902   34.2076 O   0  0  0  0  0  0  0  0  0  0  0  0
   11.2377   40.7903   33.3696 O   0  0  0  0  0  0  0  0  0  0  0  0
   10.9187   40.6905   31.9961 C   0  0  0  0  0  0  0  0  0  0  0  0
   11.5174   39.3824   31.4411 C   0  0  0  0  0  0  0  0  0  0  0  0
   12.7494   39.0893   32.0756 O   0  0  0  0  0  0  0  0  0  0  0  0
   10.6036   38.1899   31.6659 C   0  0  0  0  0  0  0  0  0  0  0  0
   12.9401   37.6834   32.0276 C   0  0  0  0  0  0  0  0  0  0  0  0
    9.6376   38.0785   30.6474 O   0  0  0  0  0  0  0  0  0  0  0  0
   11.5803   37.0204   31.6937 C   0  0  0  0  0  0  0  0  0  0  0  0
   13.4902   37.2177   33.3237 N   0  0  0  0  0  0  0  0  0  0  0  0
   11.6118   36.3193   30.4680 O   0  0  0  0  0  0  0  0  0  0  0  0
   14.4759   36.3271   33.5731 C   0  0  0  0  0  0  0  0  0  0  0  0
   13.1176   37.6317   34.5688 C   0  0  0  0  0  0  0  0  0  0  0  0
   15.2064   35.6141   32.6742 N   0  0  0  0  0  0  0  0  0  0  0  0
   14.6729   36.2274   34.9184 C   0  0  0  0  0  0  0  0  0  0  0  0
   13.8221   37.0457   35.5783 N   0  0  0  0  0  0  0  0  0  0  0  0
   16.1637   34.7597   33.1549 C   0  0  0  0  0  0  0  0  0  0  0  0
   15.6514   35.3493   35.4133 C   0  0  0  0  0  0  0  0  0  0  0  0
   16.3791   34.6312   34.5044 N   0  0  0  0  0  0  0  0  0  0  0  0
   15.9001   35.1935   36.8091 N   0  0  0  0  0  0  0  0  0  0  0  0
    9.8108   44.9953   32.1508 H   0  0  0  0  0  0  0  0  0  0  0  0
   11.9221   45.7036   32.9822 H   0  0  0  0  0  0  0  0  0  0  0  0
   11.2749   46.1196   34.4981 H   0  0  0  0  0  0  0  0  0  0  0  0
    8.7921   45.7844   34.9672 H   0  0  0  0  0  0  0  0  0  0  0  0
    7.8325   44.9361   33.7067 H   0  0  0  0  0  0  0  0  0  0  0  0
    7.4543   49.6116   33.0835 H   0  0  0  0  0  0  0  0  0  0  0  0
    8.8257   50.2104   34.0376 H   0  0  0  0  0  0  0  0  0  0  0  0
   11.1902   49.0567   33.1753 H   0  0  0  0  0  0  0  0  0  0  0  0
    9.4691   50.6522   28.8089 H   0  0  0  0  0  0  0  0  0  0  0  0
   12.7313   49.4217   31.2934 H   0  0  0  0  0  0  0  0  0  0  0  0
   11.8757   50.2326   29.1177 H   0  0  0  0  0  0  0  0  0  0  0  0
   11.3998   41.5455   31.4747 H   0  0  0  0  0  0  0  0  0  0  0  0
    9.8308   40.7398   31.7558 H   0  0  0  0  0  0  0  0  0  0  0  0
   11.6989   39.5091   30.3489 H   0  0  0  0  0  0  0  0  0  0  0  0
   10.1130   38.2588   32.6663 H   0  0  0  0  0  0  0  0  0  0  0  0
   13.6800   37.4628   31.2265 H   0  0  0  0  0  0  0  0  0  0  0  0
    8.8952   38.6907   30.8891 H   0  0  0  0  0  0  0  0  0  0  0  0
   11.2830   36.3060   32.4929 H   0  0  0  0  0  0  0  0  0  0  0  0
   11.8860   36.9589   29.7593 H   0  0  0  0  0  0  0  0  0  0  0  0
   12.3360   38.3600   34.7441 H   0  0  0  0  0  0  0  0  0  0  0  0
   16.7572   34.1792   32.4621 H   0  0  0  0  0  0  0  0  0  0  0  0
   15.3528   35.7356   37.5140 H   0  0  0  0  0  0  0  0  0  0  0  0
   16.6362   34.5318   37.1416 H   0  0  0  0  0  0  0  0  0  0  0  0
  1  2  2  0
  1  3  1  0
  3  4  1  0
  4  5  1  0
  6  1  1  0
  7  6  1  0
  6  8  1  0
  8  9  1  0
  9 10  1  0
  9 11  2  0
 10 12  1  0
 12 13  1  0
 13 14  2  0
 15 13  1  0
 14 16  1  0
 14 17  1  0
 18 15  2  0
 16 19  1  0
 16 20  2  0
 17 21  2  0
 21 18  1  0
  4 22  2  0
  4 23  1  0
 24 23  1  0
 24 25  1  0
 25 26  1  0
 25 27  1  0
 26 28  1  0
 27 29  1  0
 27 30  1  0
 30 28  1  0
 28 31  1  0
 30 32  1  0
 33 31  1  0
 34 31  1  0
 35 33  2  0
 33 36  1  0
 37 34  2  0
 38 35  1  0
 36 39  2  0
 36 37  1  0
 40 38  2  0
 40 39  1  0
 39 41  1  0
  6 42  1  6
  7 43  1  0
  7 44  1  0
  8 45  1  0
  8 46  1  0
 12 47  1  0
 12 48  1  0
 15 49  1  0
 17 50  1  0
 18 51  1  0
 21 52  1  0
 24 53  1  0
 24 54  1  0
 25 55  1  0
 27 56  1  0
 28 57  1  0
 29 58  1  0
 30 59  1  0
 32 60  1  0
 34 61  1  0
 38 62  1  0
 41 63  1  0
 41 64  1  0
M  CHG  3   5  -1  16   1  19  -1
M  END
>  <EmbedRMS>  (406) 
0.08882355785859977

$$$$

     RDKit          3D

 64 67  0  0  0  0  0  0  0  0999 V2000
   10.2881   43.7702   33.7982 C   0  0  0  0  0  0  0  0  0  0  0  0
   11.4093   43.5872   34.3577 O   0  0  0  0  0  0  0  0  0  0  0  0
    9.3678   42.7303   33.6973 O   0  0  0  0  0  0  0  0  0  0  0  0
    9.8854   41.2341   34.2841 P   0  0  0  0  0  5  0  0  0  0  0  0
   10.3692   41.4703   35.8734 O   0  0  0  0  0  1  0  0  0  0  0  0
    9.9558   45.1145   33.2464 C   0  0  2  0  0  0  0  0  0  0  0  0
   11.0666   46.0367   33.4892 N   0  0  0  0  0  0  0  0  0  0  0  0
    8.6498   45.6612   33.8602 C   0  0  0  0  0  0  0  0  0  0  0  0
    8.7163   45.7483   35.3559 C   0  0  0  0  0  0  0  0  0  0  0  0
    8.4870   44.5960   36.1114 O   0  0  0  0  0  0  0  0  0  0  0  0
    9.0193   46.8379   35.9140 O   0  0  0  0  0  0  0  0  0  0  0  0
    8.6038   44.5558   37.5301 C   0  0  0  0  0  0  0  0  0  0  0  0
    8.3892   43.1480   38.0381 C   0  0  0  0  0  0  0  0  0  0  0  0
    9.0291   42.6761   39.2144 C   0  0  0  0  0  0  0  0  0  0  0  0
    7.5297   42.2811   37.3334 C   0  0  0  0  0  0  0  0  0  0  0  0
    9.8312   43.5424   40.0359 N   0  0  0  0  0  4  0  0  0  0  0  0
    8.8629   41.3321   39.5953 C   0  0  0  0  0  0  0  0  0  0  0  0
    7.3655   40.9559   37.7377 C   0  0  0  0  0  0  0  0  0  0  0  0
    9.4122   44.8241   40.3098 O   0  0  0  0  0  1  0  0  0  0  0  0
   10.8112   43.0843   40.6592 O   0  0  0  0  0  0  0  0  0  0  0  0
    8.0404   40.4789   38.8590 C   0  0  0  0  0  0  0  0  0  0  0  0
    8.8071   40.1919   34.2111 O   0  0  0  0  0  0  0  0  0  0  0  0
   11.2363   40.7890   33.3668 O   0  0  0  0  0  0  0  0  0  0  0  0
   10.9138   40.6847   31.9938 C   0  0  0  0  0  0  0  0  0  0  0  0
   11.5164   39.3773   31.4395 C   0  0  0  0  0  0  0  0  0  0  0  0
   12.7471   39.0855   32.0739 O   0  0  0  0  0  0  0  0  0  0  0  0
   10.6046   38.1866   31.6671 C   0  0  0  0  0  0  0  0  0  0  0  0
   12.9345   37.6791   32.0282 C   0  0  0  0  0  0  0  0  0  0  0  0
    9.6377   38.0917   30.6489 O   0  0  0  0  0  0  0  0  0  0  0  0
   11.5761   37.0129   31.7057 C   0  0  0  0  0  0  0  0  0  0  0  0
   13.4909   37.2178   33.3234 N   0  0  0  0  0  0  0  0  0  0  0  0
   11.6234   36.3371   30.4684 O   0  0  0  0  0  0  0  0  0  0  0  0
   14.4764   36.3272   33.5728 C   0  0  0  0  0  0  0  0  0  0  0  0
   13.1181   37.6316   34.5686 C   0  0  0  0  0  0  0  0  0  0  0  0
   15.2066   35.6138   32.6739 N   0  0  0  0  0  0  0  0  0  0  0  0
   14.6735   36.2276   34.9182 C   0  0  0  0  0  0  0  0  0  0  0  0
   13.8227   37.0458   35.5782 N   0  0  0  0  0  0  0  0  0  0  0  0
   16.1638   34.7593   33.1548 C   0  0  0  0  0  0  0  0  0  0  0  0
   15.6516   35.3493   35.4131 C   0  0  0  0  0  0  0  0  0  0  0  0
   16.3792   34.6310   34.5043 N   0  0  0  0  0  0  0  0  0  0  0  0
   15.9002   35.1934   36.8090 N   0  0  0  0  0  0  0  0  0  0  0  0
    9.8050   45.0082   32.1485 H   0  0  0  0  0  0  0  0  0  0  0  0
   11.8886   45.7204   32.9235 H   0  0  0  0  0  0  0  0  0  0  0  0
   10.8087   46.9749   33.1049 H   0  0  0  0  0  0  0  0  0  0  0  0
    7.8031   44.9983   33.5783 H   0  0  0  0  0  0  0  0  0  0  0  0
    8.4280   46.6650   33.4367 H   0  0  0  0  0  0  0  0  0  0  0  0
    9.6224   44.9079   37.7999 H   0  0  0  0  0  0  0  0  0  0  0  0
    7.8468   45.2290   37.9863 H   0  0  0  0  0  0  0  0  0  0  0  0
    6.9978   42.6220   36.4540 H   0  0  0  0  0  0  0  0  0  0  0  0
    9.3529   40.9498   40.4819 H   0  0  0  0  0  0  0  0  0  0  0  0
    6.7172   40.2958   37.1759 H   0  0  0  0  0  0  0  0  0  0  0  0
    7.9139   39.4493   39.1682 H   0  0  0  0  0  0  0  0  0  0  0  0
    9.8238   40.7208   31.7573 H   0  0  0  0  0  0  0  0  0  0  0  0
   11.3867   41.5416   31.4683 H   0  0  0  0  0  0  0  0  0  0  0  0
   11.6983   39.5016   30.3469 H   0  0  0  0  0  0  0  0  0  0  0  0
   10.1094   38.2769   32.6630 H   0  0  0  0  0  0  0  0  0  0  0  0
   13.6672   37.4545   31.2213 H   0  0  0  0  0  0  0  0  0  0  0  0
    8.9778   37.4158   30.9535 H   0  0  0  0  0  0  0  0  0  0  0  0
   11.2861   36.3041   32.5177 H   0  0  0  0  0  0  0  0  0  0  0  0
   10.8690   35.6918   30.4657 H   0  0  0  0  0  0  0  0  0  0  0  0
   12.3355   38.3587   34.7441 H   0  0  0  0  0  0  0  0  0  0  0  0
   16.7571   34.1786   32.4621 H   0  0  0  0  0  0  0  0  0  0  0  0
   16.6361   34.5316   37.1416 H   0  0  0  0  0  0  0  0  0  0  0  0
   15.3530   35.7358   37.5138 H   0  0  0  0  0  0  0  0  0  0  0  0
  1  2  2  0
  1  3  1  0
  3  4  1  0
  4  5  1  0
  6  1  1  0
  7  6  1  0
  6  8  1  0
  8  9  1  0
  9 10  1  0
  9 11  2  0
 10 12  1  0
 12 13  1  0
 13 14  2  0
 15 13  1  0
 14 16  1  0
 14 17  1  0
 18 15  2  0
 16 19  1  0
 16 20  2  0
 17 21  2  0
 21 18  1  0
  4 22  2  0
  4 23  1  0
 24 23  1  0
 24 25  1  0
 25 26  1  0
 25 27  1  0
 26 28  1  0
 27 29  1  0
 27 30  1  0
 30 28  1  0
 28 31  1  0
 30 32  1  0
 33 31  1  0
 34 31  1  0
 35 33  2  0
 33 36  1  0
 37 34  2  0
 38 35  1  0
 36 39  2  0
 36 37  1  0
 40 38  2  0
 40 39  1  0
 39 41  1  0
  6 42  1  6
  7 43  1  0
  7 44  1  0
  8 45  1  0
  8 46  1  0
 12 47  1  0
 12 48  1  0
 15 49  1  0
 17 50  1  0
 18 51  1  0
 21 52  1  0
 24 53  1  0
 24 54  1  0
 25 55  1  0
 27 56  1  0
 28 57  1  0
 29 58  1  0
 30 59  1  0
 32 60  1  0
 34 61  1  0
 38 62  1  0
 41 63  1  0
 41 64  1  0
M  CHG  3   5  -1  16   1  19  -1
M  END
>  <EmbedRMS>  (407) 
0.0889457340643229

$$$$

     RDKit          3D

 64 67  0  0  0  0  0  0  0  0999 V2000
   10.2869   43.7702   33.7998 C   0  0  0  0  0  0  0  0  0  0  0  0
   11.4104   43.5849   34.3533 O   0  0  0  0  0  0  0  0  0  0  0  0
    9.3666   42.7306   33.6982 O   0  0  0  0  0  0  0  0  0  0  0  0
    9.8853   41.2345   34.2840 P   0  0  0  0  0  5  0  0  0  0  0  0
   10.3667   41.4721   35.8743 O   0  0  0  0  0  1  0  0  0  0  0  0
    9.9542   45.1150   33.2508 C   0  0  2  0  0  0  0  0  0  0  0  0
   11.0690   46.0345   33.4865 N   0  0  0  0  0  0  0  0  0  0  0  0
    8.6532   45.6632   33.8749 C   0  0  0  0  0  0  0  0  0  0  0  0
    8.7138   45.7084   35.3733 C   0  0  0  0  0  0  0  0  0  0  0  0
    9.5300   46.6532   36.0045 O   0  0  0  0  0  0  0  0  0  0  0  0
    8.0637   44.8652   36.0487 O   0  0  0  0  0  0  0  0  0  0  0  0
    9.7959   46.6465   37.4066 C   0  0  0  0  0  0  0  0  0  0  0  0
   10.6206   45.4364   37.7851 C   0  0  0  0  0  0  0  0  0  0  0  0
   10.2633   44.5606   38.8433 C   0  0  0  0  0  0  0  0  0  0  0  0
   11.8306   45.2231   37.1002 C   0  0  0  0  0  0  0  0  0  0  0  0
    9.0474   44.7277   39.5870 N   0  0  0  0  0  4  0  0  0  0  0  0
   11.1235   43.5009   39.1797 C   0  0  0  0  0  0  0  0  0  0  0  0
   12.6632   44.1550   37.4369 C   0  0  0  0  0  0  0  0  0  0  0  0
    7.8372   44.7335   38.9339 O   0  0  0  0  0  1  0  0  0  0  0  0
    9.0599   44.6079   40.8295 O   0  0  0  0  0  0  0  0  0  0  0  0
   12.3106   43.2957   38.4755 C   0  0  0  0  0  0  0  0  0  0  0  0
    8.8078   40.1915   34.2098 O   0  0  0  0  0  0  0  0  0  0  0  0
   11.2366   40.7901   33.3668 O   0  0  0  0  0  0  0  0  0  0  0  0
   10.9134   40.6843   31.9939 C   0  0  0  0  0  0  0  0  0  0  0  0
   11.5174   39.3775   31.4398 C   0  0  0  0  0  0  0  0  0  0  0  0
   12.7477   39.0870   32.0758 O   0  0  0  0  0  0  0  0  0  0  0  0
   10.6069   38.1852   31.6658 C   0  0  0  0  0  0  0  0  0  0  0  0
   12.9372   37.6812   32.0291 C   0  0  0  0  0  0  0  0  0  0  0  0
    9.6404   38.0883   30.6476 O   0  0  0  0  0  0  0  0  0  0  0  0
   11.5789   37.0135   31.7045 C   0  0  0  0  0  0  0  0  0  0  0  0
   13.4915   37.2183   33.3240 N   0  0  0  0  0  0  0  0  0  0  0  0
   11.6125   36.3390   30.4674 O   0  0  0  0  0  0  0  0  0  0  0  0
   14.4765   36.3272   33.5731 C   0  0  0  0  0  0  0  0  0  0  0  0
   13.1185   37.6318   34.5691 C   0  0  0  0  0  0  0  0  0  0  0  0
   15.2066   35.6140   32.6741 N   0  0  0  0  0  0  0  0  0  0  0  0
   14.6735   36.2274   34.9185 C   0  0  0  0  0  0  0  0  0  0  0  0
   13.8228   37.0456   35.5786 N   0  0  0  0  0  0  0  0  0  0  0  0
   16.1637   34.7593   33.1548 C   0  0  0  0  0  0  0  0  0  0  0  0
   15.6517   35.3491   35.4132 C   0  0  0  0  0  0  0  0  0  0  0  0
   16.3792   34.6309   34.5043 N   0  0  0  0  0  0  0  0  0  0  0  0
   15.9004   35.1932   36.8091 N   0  0  0  0  0  0  0  0  0  0  0  0
    9.7960   45.0106   32.1538 H   0  0  0  0  0  0  0  0  0  0  0  0
   10.8132   46.9724   33.1003 H   0  0  0  0  0  0  0  0  0  0  0  0
   11.8884   45.7136   32.9198 H   0  0  0  0  0  0  0  0  0  0  0  0
    8.4553   46.6872   33.4918 H   0  0  0  0  0  0  0  0  0  0  0  0
    7.7970   45.0283   33.5564 H   0  0  0  0  0  0  0  0  0  0  0  0
   10.3807   47.5568   37.6555 H   0  0  0  0  0  0  0  0  0  0  0  0
    8.8432   46.7225   37.9649 H   0  0  0  0  0  0  0  0  0  0  0  0
   12.1318   45.8901   36.3015 H   0  0  0  0  0  0  0  0  0  0  0  0
   10.8636   42.8221   39.9824 H   0  0  0  0  0  0  0  0  0  0  0  0
   13.5869   43.9979   36.8952 H   0  0  0  0  0  0  0  0  0  0  0  0
   12.9594   42.4699   38.7376 H   0  0  0  0  0  0  0  0  0  0  0  0
    9.8232   40.7188   31.7579 H   0  0  0  0  0  0  0  0  0  0  0  0
   11.3849   41.5416   31.4677 H   0  0  0  0  0  0  0  0  0  0  0  0
   11.7005   39.5023   30.3475 H   0  0  0  0  0  0  0  0  0  0  0  0
   10.1096   38.2750   32.6607 H   0  0  0  0  0  0  0  0  0  0  0  0
   13.6713   37.4593   31.2228 H   0  0  0  0  0  0  0  0  0  0  0  0
    9.0033   37.3836   30.9350 H   0  0  0  0  0  0  0  0  0  0  0  0
   11.2706   36.3049   32.5089 H   0  0  0  0  0  0  0  0  0  0  0  0
   12.1444   35.5137   30.6141 H   0  0  0  0  0  0  0  0  0  0  0  0
   12.3363   38.3595   34.7446 H   0  0  0  0  0  0  0  0  0  0  0  0
   16.7570   34.1787   32.4620 H   0  0  0  0  0  0  0  0  0  0  0  0
   15.3532   35.7356   37.5139 H   0  0  0  0  0  0  0  0  0  0  0  0
   16.6362   34.5314   37.1416 H   0  0  0  0  0  0  0  0  0  0  0  0
  1  2  2  0
  1  3  1  0
  3  4  1  0
  4  5  1  0
  6  1  1  0
  7  6  1  0
  6  8  1  0
  8  9  1  0
  9 10  1  0
  9 11  2  0
 10 12  1  0
 12 13  1  0
 13 14  2  0
 15 13  1  0
 14 16  1  0
 14 17  1  0
 18 15  2  0
 16 19  1  0
 16 20  2  0
 17 21  2  0
 21 18  1  0
  4 22  2  0
  4 23  1  0
 24 23  1  0
 24 25  1  0
 25 26  1  0
 25 27  1  0
 26 28  1  0
 27 29  1  0
 27 30  1  0
 30 28  1  0
 28 31  1  0
 30 32  1  0
 33 31  1  0
 34 31  1  0
 35 33  2  0
 33 36  1  0
 37 34  2  0
 38 35  1  0
 36 39  2  0
 36 37  1  0
 40 38  2  0
 40 39  1  0
 39 41  1  0
  6 42  1  6
  7 43  1  0
  7 44  1  0
  8 45  1  0
  8 46  1  0
 12 47  1  0
 12 48  1  0
 15 49  1  0
 17 50  1  0
 18 51  1  0
 21 52  1  0
 24 53  1  0
 24 54  1  0
 25 55  1  0
 27 56  1  0
 28 57  1  0
 29 58  1  0
 30 59  1  0
 32 60  1  0
 34 61  1  0
 38 62  1  0
 41 63  1  0
 41 64  1  0
M  CHG  3   5  -1  16   1  19  -1
M  END
>  <EmbedRMS>  (408) 
0.08858056083757526

$$$$

     RDKit          3D

 64 67  0  0  0  0  0  0  0  0999 V2000
   10.2861   43.7718   33.8043 C   0  0  0  0  0  0  0  0  0  0  0  0
   11.4086   43.5882   34.3607 O   0  0  0  0  0  0  0  0  0  0  0  0
    9.3673   42.7310   33.6992 O   0  0  0  0  0  0  0  0  0  0  0  0
    9.8853   41.2342   34.2839 P   0  0  0  0  0  5  0  0  0  0  0  0
   10.3659   41.4703   35.8744 O   0  0  0  0  0  1  0  0  0  0  0  0
    9.9532   45.1148   33.2532 C   0  0  2  0  0  0  0  0  0  0  0  0
   11.0711   46.0330   33.4771 N   0  0  0  0  0  0  0  0  0  0  0  0
    8.6592   45.6657   33.8870 C   0  0  0  0  0  0  0  0  0  0  0  0
    8.7673   45.8112   35.3766 C   0  0  0  0  0  0  0  0  0  0  0  0
    9.5147   46.8627   35.9134 O   0  0  0  0  0  0  0  0  0  0  0  0
    8.2099   44.9676   36.1309 O   0  0  0  0  0  0  0  0  0  0  0  0
    9.6777   47.0536   37.3151 C   0  0  0  0  0  0  0  0  0  0  0  0
   10.6253   48.2006   37.5639 C   0  0  0  0  0  0  0  0  0  0  0  0
   11.9505   48.2158   37.0455 C   0  0  0  0  0  0  0  0  0  0  0  0
   10.1633   49.3086   38.2987 C   0  0  0  0  0  0  0  0  0  0  0  0
   12.4939   47.1145   36.2931 N   0  0  0  0  0  4  0  0  0  0  0  0
   12.7536   49.3511   37.2572 C   0  0  0  0  0  0  0  0  0  0  0  0
   10.9839   50.4170   38.5093 C   0  0  0  0  0  0  0  0  0  0  0  0
   13.4622   47.3443   35.3428 O   0  0  0  0  0  1  0  0  0  0  0  0
   12.2242   45.9350   36.5981 O   0  0  0  0  0  0  0  0  0  0  0  0
   12.2746   50.4400   37.9862 C   0  0  0  0  0  0  0  0  0  0  0  0
    8.8077   40.1914   34.2087 O   0  0  0  0  0  0  0  0  0  0  0  0
   11.2370   40.7898   33.3681 O   0  0  0  0  0  0  0  0  0  0  0  0
   10.9154   40.6882   31.9950 C   0  0  0  0  0  0  0  0  0  0  0  0
   11.5261   39.3871   31.4365 C   0  0  0  0  0  0  0  0  0  0  0  0
   12.7491   39.0893   32.0819 O   0  0  0  0  0  0  0  0  0  0  0  0
   10.6123   38.1893   31.6461 C   0  0  0  0  0  0  0  0  0  0  0  0
   12.9373   37.6827   32.0301 C   0  0  0  0  0  0  0  0  0  0  0  0
    9.6150   38.0839   30.6538 O   0  0  0  0  0  0  0  0  0  0  0  0
   11.5793   37.0136   31.7014 C   0  0  0  0  0  0  0  0  0  0  0  0
   13.4906   37.2170   33.3242 N   0  0  0  0  0  0  0  0  0  0  0  0
   11.6216   36.3253   30.4725 O   0  0  0  0  0  0  0  0  0  0  0  0
   14.4763   36.3266   33.5731 C   0  0  0  0  0  0  0  0  0  0  0  0
   13.1182   37.6308   34.5694 C   0  0  0  0  0  0  0  0  0  0  0  0
   15.2065   35.6137   32.6740 N   0  0  0  0  0  0  0  0  0  0  0  0
   14.6735   36.2270   34.9185 C   0  0  0  0  0  0  0  0  0  0  0  0
   13.8229   37.0451   35.5787 N   0  0  0  0  0  0  0  0  0  0  0  0
   16.1639   34.7593   33.1547 C   0  0  0  0  0  0  0  0  0  0  0  0
   15.6519   35.3489   35.4132 C   0  0  0  0  0  0  0  0  0  0  0  0
   16.3794   34.6308   34.5042 N   0  0  0  0  0  0  0  0  0  0  0  0
   15.9006   35.1931   36.8090 N   0  0  0  0  0  0  0  0  0  0  0  0
    9.7850   45.0061   32.1581 H   0  0  0  0  0  0  0  0  0  0  0  0
   11.8841   45.7118   32.9014 H   0  0  0  0  0  0  0  0  0  0  0  0
   10.8117   46.9718   33.0955 H   0  0  0  0  0  0  0  0  0  0  0  0
    8.4254   46.6591   33.4473 H   0  0  0  0  0  0  0  0  0  0  0  0
    7.8077   44.9949   33.6375 H   0  0  0  0  0  0  0  0  0  0  0  0
    8.6809   47.2514   37.7667 H   0  0  0  0  0  0  0  0  0  0  0  0
   10.0735   46.1314   37.7904 H   0  0  0  0  0  0  0  0  0  0  0  0
    9.1591   49.3219   38.7043 H   0  0  0  0  0  0  0  0  0  0  0  0
   13.7636   49.3875   36.8694 H   0  0  0  0  0  0  0  0  0  0  0  0
   10.6151   51.2634   39.0744 H   0  0  0  0  0  0  0  0  0  0  0  0
   12.9076   51.3031   38.1477 H   0  0  0  0  0  0  0  0  0  0  0  0
    9.8252   40.7180   31.7580 H   0  0  0  0  0  0  0  0  0  0  0  0
   11.3827   41.5504   31.4729 H   0  0  0  0  0  0  0  0  0  0  0  0
   11.7291   39.5287   30.3504 H   0  0  0  0  0  0  0  0  0  0  0  0
   10.1139   38.2719   32.6380 H   0  0  0  0  0  0  0  0  0  0  0  0
   13.6726   37.4636   31.2240 H   0  0  0  0  0  0  0  0  0  0  0  0
   10.0536   38.1086   29.7639 H   0  0  0  0  0  0  0  0  0  0  0  0
   11.2646   36.3134   32.5107 H   0  0  0  0  0  0  0  0  0  0  0  0
   12.1550   35.5032   30.6315 H   0  0  0  0  0  0  0  0  0  0  0  0
   12.3362   38.3586   34.7450 H   0  0  0  0  0  0  0  0  0  0  0  0
   16.7573   34.1788   32.4619 H   0  0  0  0  0  0  0  0  0  0  0  0
   15.3533   35.7353   37.5139 H   0  0  0  0  0  0  0  0  0  0  0  0
   16.6366   34.5314   37.1415 H   0  0  0  0  0  0  0  0  0  0  0  0
  1  2  2  0
  1  3  1  0
  3  4  1  0
  4  5  1  0
  6  1  1  0
  7  6  1  0
  6  8  1  0
  8  9  1  0
  9 10  1  0
  9 11  2  0
 10 12  1  0
 12 13  1  0
 13 14  2  0
 15 13  1  0
 14 16  1  0
 14 17  1  0
 18 15  2  0
 16 19  1  0
 16 20  2  0
 17 21  2  0
 21 18  1  0
  4 22  2  0
  4 23  1  0
 24 23  1  0
 24 25  1  0
 25 26  1  0
 25 27  1  0
 26 28  1  0
 27 29  1  0
 27 30  1  0
 30 28  1  0
 28 31  1  0
 30 32  1  0
 33 31  1  0
 34 31  1  0
 35 33  2  0
 33 36  1  0
 37 34  2  0
 38 35  1  0
 36 39  2  0
 36 37  1  0
 40 38  2  0
 40 39  1  0
 39 41  1  0
  6 42  1  6
  7 43  1  0
  7 44  1  0
  8 45  1  0
  8 46  1  0
 12 47  1  0
 12 48  1  0
 15 49  1  0
 17 50  1  0
 18 51  1  0
 21 52  1  0
 24 53  1  0
 24 54  1  0
 25 55  1  0
 27 56  1  0
 28 57  1  0
 29 58  1  0
 30 59  1  0
 32 60  1  0
 34 61  1  0
 38 62  1  0
 41 63  1  0
 41 64  1  0
M  CHG  3   5  -1  16   1  19  -1
M  END
>  <EmbedRMS>  (409) 
0.08788690332246879

$$$$

     RDKit          3D

 64 67  0  0  0  0  0  0  0  0999 V2000
   10.2863   43.7710   33.8098 C   0  0  0  0  0  0  0  0  0  0  0  0
   11.4101   43.5818   34.3616 O   0  0  0  0  0  0  0  0  0  0  0  0
    9.3671   42.7307   33.7016 O   0  0  0  0  0  0  0  0  0  0  0  0
    9.8851   41.2327   34.2837 P   0  0  0  0  0  5  0  0  0  0  0  0
   10.3652   41.4675   35.8745 O   0  0  0  0  0  1  0  0  0  0  0  0
    9.9609   45.1123   33.2471 C   0  0  2  0  0  0  0  0  0  0  0  0
   11.0654   46.0476   33.4750 N   0  0  0  0  0  0  0  0  0  0  0  0
    8.6645   45.6568   33.8705 C   0  0  0  0  0  0  0  0  0  0  0  0
    8.2768   46.9646   33.2534 C   0  0  0  0  0  0  0  0  0  0  0  0
    8.6016   48.1590   33.9069 O   0  0  0  0  0  0  0  0  0  0  0  0
    7.6932   46.9798   32.1351 O   0  0  0  0  0  0  0  0  0  0  0  0
    8.3368   49.4470   33.3513 C   0  0  0  0  0  0  0  0  0  0  0  0
    9.2533   49.7344   32.1816 C   0  0  0  0  0  0  0  0  0  0  0  0
    8.7989   50.3983   31.0126 C   0  0  0  0  0  0  0  0  0  0  0  0
   10.6011   49.3360   32.2616 C   0  0  0  0  0  0  0  0  0  0  0  0
    7.4692   50.9348   30.9195 N   0  0  0  0  0  4  0  0  0  0  0  0
    9.6791   50.5594   29.9275 C   0  0  0  0  0  0  0  0  0  0  0  0
   11.4645   49.5210   31.1812 C   0  0  0  0  0  0  0  0  0  0  0  0
    6.9491   51.6734   31.9573 O   0  0  0  0  0  1  0  0  0  0  0  0
    6.8647   50.9220   29.8272 O   0  0  0  0  0  0  0  0  0  0  0  0
   11.0010   50.1200   30.0115 C   0  0  0  0  0  0  0  0  0  0  0  0
    8.8075   40.1901   34.2072 O   0  0  0  0  0  0  0  0  0  0  0  0
   11.2381   40.7897   33.3686 O   0  0  0  0  0  0  0  0  0  0  0  0
   10.9194   40.6894   31.9948 C   0  0  0  0  0  0  0  0  0  0  0  0
   11.5171   39.3801   31.4396 C   0  0  0  0  0  0  0  0  0  0  0  0
   12.7478   39.0861   32.0733 O   0  0  0  0  0  0  0  0  0  0  0  0
   10.6031   38.1891   31.6666 C   0  0  0  0  0  0  0  0  0  0  0  0
   12.9335   37.6796   32.0279 C   0  0  0  0  0  0  0  0  0  0  0  0
    9.6397   38.0776   30.6456 O   0  0  0  0  0  0  0  0  0  0  0  0
   11.5739   37.0154   31.7057 C   0  0  0  0  0  0  0  0  0  0  0  0
   13.4903   37.2178   33.3231 N   0  0  0  0  0  0  0  0  0  0  0  0
   11.6211   36.3376   30.4695 O   0  0  0  0  0  0  0  0  0  0  0  0
   14.4761   36.3273   33.5725 C   0  0  0  0  0  0  0  0  0  0  0  0
   13.1179   37.6316   34.5684 C   0  0  0  0  0  0  0  0  0  0  0  0
   15.2063   35.6139   32.6737 N   0  0  0  0  0  0  0  0  0  0  0  0
   14.6733   36.2277   34.9179 C   0  0  0  0  0  0  0  0  0  0  0  0
   13.8225   37.0459   35.5779 N   0  0  0  0  0  0  0  0  0  0  0  0
   16.1636   34.7594   33.1546 C   0  0  0  0  0  0  0  0  0  0  0  0
   15.6515   35.3494   35.4129 C   0  0  0  0  0  0  0  0  0  0  0  0
   16.3791   34.6311   34.5041 N   0  0  0  0  0  0  0  0  0  0  0  0
   15.9001   35.1935   36.8088 N   0  0  0  0  0  0  0  0  0  0  0  0
    9.8110   44.9951   32.1508 H   0  0  0  0  0  0  0  0  0  0  0  0
   11.2750   46.1191   34.4983 H   0  0  0  0  0  0  0  0  0  0  0  0
   11.9219   45.7035   32.9821 H   0  0  0  0  0  0  0  0  0  0  0  0
    7.8349   44.9328   33.7145 H   0  0  0  0  0  0  0  0  0  0  0  0
    8.7957   45.7911   34.9666 H   0  0  0  0  0  0  0  0  0  0  0  0
    8.5094   50.2155   34.1333 H   0  0  0  0  0  0  0  0  0  0  0  0
    7.2667   49.4860   33.0598 H   0  0  0  0  0  0  0  0  0  0  0  0
   10.9828   48.8665   33.1594 H   0  0  0  0  0  0  0  0  0  0  0  0
    9.3472   51.0533   29.0229 H   0  0  0  0  0  0  0  0  0  0  0  0
   12.4945   49.1955   31.2504 H   0  0  0  0  0  0  0  0  0  0  0  0
   11.6718   50.2599   29.1736 H   0  0  0  0  0  0  0  0  0  0  0  0
    9.8316   40.7398   31.7544 H   0  0  0  0  0  0  0  0  0  0  0  0
   11.4014   41.5437   31.4731 H   0  0  0  0  0  0  0  0  0  0  0  0
   11.6982   39.5042   30.3470 H   0  0  0  0  0  0  0  0  0  0  0  0
   10.1090   38.2631   32.6649 H   0  0  0  0  0  0  0  0  0  0  0  0
   13.6656   37.4540   31.2207 H   0  0  0  0  0  0  0  0  0  0  0  0
    8.8965   38.6899   30.8851 H   0  0  0  0  0  0  0  0  0  0  0  0
   11.2846   36.3060   32.5175 H   0  0  0  0  0  0  0  0  0  0  0  0
   10.8523   35.7094   30.4590 H   0  0  0  0  0  0  0  0  0  0  0  0
   12.3353   38.3588   34.7439 H   0  0  0  0  0  0  0  0  0  0  0  0
   16.7570   34.1788   32.4619 H   0  0  0  0  0  0  0  0  0  0  0  0
   15.3529   35.7359   37.5136 H   0  0  0  0  0  0  0  0  0  0  0  0
   16.6360   34.5317   37.1413 H   0  0  0  0  0  0  0  0  0  0  0  0
  1  2  2  0
  1  3  1  0
  3  4  1  0
  4  5  1  0
  6  1  1  0
  7  6  1  0
  6  8  1  0
  8  9  1  0
  9 10  1  0
  9 11  2  0
 10 12  1  0
 12 13  1  0
 13 14  2  0
 15 13  1  0
 14 16  1  0
 14 17  1  0
 18 15  2  0
 16 19  1  0
 16 20  2  0
 17 21  2  0
 21 18  1  0
  4 22  2  0
  4 23  1  0
 24 23  1  0
 24 25  1  0
 25 26  1  0
 25 27  1  0
 26 28  1  0
 27 29  1  0
 27 30  1  0
 30 28  1  0
 28 31  1  0
 30 32  1  0
 33 31  1  0
 34 31  1  0
 35 33  2  0
 33 36  1  0
 37 34  2  0
 38 35  1  0
 36 39  2  0
 36 37  1  0
 40 38  2  0
 40 39  1  0
 39 41  1  0
  6 42  1  6
  7 43  1  0
  7 44  1  0
  8 45  1  0
  8 46  1  0
 12 47  1  0
 12 48  1  0
 15 49  1  0
 17 50  1  0
 18 51  1  0
 21 52  1  0
 24 53  1  0
 24 54  1  0
 25 55  1  0
 27 56  1  0
 28 57  1  0
 29 58  1  0
 30 59  1  0
 32 60  1  0
 34 61  1  0
 38 62  1  0
 41 63  1  0
 41 64  1  0
M  CHG  3   5  -1  16   1  19  -1
M  END
>  <EmbedRMS>  (410) 
0.08993716604096096

$$$$

     RDKit          3D

 64 67  0  0  0  0  0  0  0  0999 V2000
   10.2845   43.7734   33.8096 C   0  0  0  0  0  0  0  0  0  0  0  0
   11.4072   43.5896   34.3653 O   0  0  0  0  0  0  0  0  0  0  0  0
    9.3669   42.7317   33.7019 O   0  0  0  0  0  0  0  0  0  0  0  0
    9.8858   41.2338   34.2822 P   0  0  0  0  0  5  0  0  0  0  0  0
   10.3683   41.4661   35.8711 O   0  0  0  0  0  1  0  0  0  0  0  0
    9.9544   45.1134   33.2500 C   0  0  2  0  0  0  0  0  0  0  0  0
   11.0723   46.0326   33.4731 N   0  0  0  0  0  0  0  0  0  0  0  0
    8.6574   45.6696   33.8726 C   0  0  0  0  0  0  0  0  0  0  0  0
    8.8100   45.9600   35.3357 C   0  0  0  0  0  0  0  0  0  0  0  0
    8.5744   44.9435   36.2689 O   0  0  0  0  0  0  0  0  0  0  0  0
    9.1747   47.1087   35.7078 O   0  0  0  0  0  0  0  0  0  0  0  0
    8.8999   45.0497   37.6544 C   0  0  0  0  0  0  0  0  0  0  0  0
   10.2749   44.4732   37.9042 C   0  0  0  0  0  0  0  0  0  0  0  0
   10.4748   43.2034   38.5085 C   0  0  0  0  0  0  0  0  0  0  0  0
   11.3914   45.1834   37.4263 C   0  0  0  0  0  0  0  0  0  0  0  0
    9.3887   42.4457   39.0596 N   0  0  0  0  0  4  0  0  0  0  0  0
   11.7723   42.6691   38.5777 C   0  0  0  0  0  0  0  0  0  0  0  0
   12.6748   44.6430   37.5182 C   0  0  0  0  0  0  0  0  0  0  0  0
    9.3342   41.0870   38.8507 O   0  0  0  0  0  1  0  0  0  0  0  0
    8.6714   42.9462   39.9500 O   0  0  0  0  0  0  0  0  0  0  0  0
   12.8640   43.3844   38.0853 C   0  0  0  0  0  0  0  0  0  0  0  0
    8.8079   40.1913   34.2074 O   0  0  0  0  0  0  0  0  0  0  0  0
   11.2373   40.7912   33.3650 O   0  0  0  0  0  0  0  0  0  0  0  0
   10.9142   40.6852   31.9924 C   0  0  0  0  0  0  0  0  0  0  0  0
   11.5166   39.3773   31.4391 C   0  0  0  0  0  0  0  0  0  0  0  0
   12.7471   39.0855   32.0740 O   0  0  0  0  0  0  0  0  0  0  0  0
   10.6047   38.1868   31.6670 C   0  0  0  0  0  0  0  0  0  0  0  0
   12.9345   37.6792   32.0283 C   0  0  0  0  0  0  0  0  0  0  0  0
    9.6378   38.0917   30.6489 O   0  0  0  0  0  0  0  0  0  0  0  0
   11.5761   37.0130   31.7057 C   0  0  0  0  0  0  0  0  0  0  0  0
   13.4909   37.2178   33.3234 N   0  0  0  0  0  0  0  0  0  0  0  0
   11.6234   36.3371   30.4685 O   0  0  0  0  0  0  0  0  0  0  0  0
   14.4764   36.3272   33.5728 C   0  0  0  0  0  0  0  0  0  0  0  0
   13.1182   37.6318   34.5686 C   0  0  0  0  0  0  0  0  0  0  0  0
   15.2065   35.6138   32.6740 N   0  0  0  0  0  0  0  0  0  0  0  0
   14.6735   36.2276   34.9182 C   0  0  0  0  0  0  0  0  0  0  0  0
   13.8227   37.0459   35.5782 N   0  0  0  0  0  0  0  0  0  0  0  0
   16.1637   34.7593   33.1548 C   0  0  0  0  0  0  0  0  0  0  0  0
   15.6516   35.3493   35.4131 C   0  0  0  0  0  0  0  0  0  0  0  0
   16.3792   34.6310   34.5043 N   0  0  0  0  0  0  0  0  0  0  0  0
   15.9002   35.1935   36.8090 N   0  0  0  0  0  0  0  0  0  0  0  0
    9.7912   44.9957   32.1550 H   0  0  0  0  0  0  0  0  0  0  0  0
   10.8129   46.9684   33.0840 H   0  0  0  0  0  0  0  0  0  0  0  0
   11.8867   45.7079   32.9015 H   0  0  0  0  0  0  0  0  0  0  0  0
    8.3682   46.6034   33.3426 H   0  0  0  0  0  0  0  0  0  0  0  0
    7.8254   44.9467   33.7274 H   0  0  0  0  0  0  0  0  0  0  0  0
    8.1163   44.5177   38.2228 H   0  0  0  0  0  0  0  0  0  0  0  0
    8.8617   46.1071   37.9957 H   0  0  0  0  0  0  0  0  0  0  0  0
   11.2693   46.1541   36.9651 H   0  0  0  0  0  0  0  0  0  0  0  0
   11.9387   41.6993   39.0298 H   0  0  0  0  0  0  0  0  0  0  0  0
   13.5233   45.1977   37.1388 H   0  0  0  0  0  0  0  0  0  0  0  0
   13.8595   42.9645   38.1495 H   0  0  0  0  0  0  0  0  0  0  0  0
    9.8242   40.7213   31.7558 H   0  0  0  0  0  0  0  0  0  0  0  0
   11.3871   41.5415   31.4658 H   0  0  0  0  0  0  0  0  0  0  0  0
   11.6988   39.5009   30.3465 H   0  0  0  0  0  0  0  0  0  0  0  0
   10.1096   38.2773   32.6629 H   0  0  0  0  0  0  0  0  0  0  0  0
   13.6672   37.4546   31.2214 H   0  0  0  0  0  0  0  0  0  0  0  0
    8.9778   37.4158   30.9536 H   0  0  0  0  0  0  0  0  0  0  0  0
   11.2860   36.3042   32.5178 H   0  0  0  0  0  0  0  0  0  0  0  0
   10.8690   35.6918   30.4658 H   0  0  0  0  0  0  0  0  0  0  0  0
   12.3357   38.3591   34.7441 H   0  0  0  0  0  0  0  0  0  0  0  0
   16.7571   34.1786   32.4621 H   0  0  0  0  0  0  0  0  0  0  0  0
   15.3530   35.7359   37.5138 H   0  0  0  0  0  0  0  0  0  0  0  0
   16.6360   34.5316   37.1416 H   0  0  0  0  0  0  0  0  0  0  0  0
  1  2  2  0
  1  3  1  0
  3  4  1  0
  4  5  1  0
  6  1  1  0
  7  6  1  0
  6  8  1  0
  8  9  1  0
  9 10  1  0
  9 11  2  0
 10 12  1  0
 12 13  1  0
 13 14  2  0
 15 13  1  0
 14 16  1  0
 14 17  1  0
 18 15  2  0
 16 19  1  0
 16 20  2  0
 17 21  2  0
 21 18  1  0
  4 22  2  0
  4 23  1  0
 24 23  1  0
 24 25  1  0
 25 26  1  0
 25 27  1  0
 26 28  1  0
 27 29  1  0
 27 30  1  0
 30 28  1  0
 28 31  1  0
 30 32  1  0
 33 31  1  0
 34 31  1  0
 35 33  2  0
 33 36  1  0
 37 34  2  0
 38 35  1  0
 36 39  2  0
 36 37  1  0
 40 38  2  0
 40 39  1  0
 39 41  1  0
  6 42  1  6
  7 43  1  0
  7 44  1  0
  8 45  1  0
  8 46  1  0
 12 47  1  0
 12 48  1  0
 15 49  1  0
 17 50  1  0
 18 51  1  0
 21 52  1  0
 24 53  1  0
 24 54  1  0
 25 55  1  0
 27 56  1  0
 28 57  1  0
 29 58  1  0
 30 59  1  0
 32 60  1  0
 34 61  1  0
 38 62  1  0
 41 63  1  0
 41 64  1  0
M  CHG  3   5  -1  16   1  19  -1
M  END
>  <EmbedRMS>  (411) 
0.08900581467756837

$$$$

     RDKit          3D

 64 67  0  0  0  0  0  0  0  0999 V2000
   10.2849   43.7724   33.8070 C   0  0  0  0  0  0  0  0  0  0  0  0
   11.4106   43.5875   34.3564 O   0  0  0  0  0  0  0  0  0  0  0  0
    9.3656   42.7316   33.7038 O   0  0  0  0  0  0  0  0  0  0  0  0
    9.8845   41.2344   34.2860 P   0  0  0  0  0  5  0  0  0  0  0  0
   10.3685   41.4687   35.8752 O   0  0  0  0  0  1  0  0  0  0  0  0
    9.9565   45.1112   33.2457 C   0  0  2  0  0  0  0  0  0  0  0  0
   11.0689   46.0357   33.4788 N   0  0  0  0  0  0  0  0  0  0  0  0
    8.6225   45.6610   33.8015 C   0  0  0  0  0  0  0  0  0  0  0  0
    8.6544   45.8926   35.2847 C   0  0  0  0  0  0  0  0  0  0  0  0
    8.7420   44.8002   36.1521 O   0  0  0  0  0  0  0  0  0  0  0  0
    8.6172   47.0695   35.7356 O   0  0  0  0  0  0  0  0  0  0  0  0
    8.7989   44.9449   37.5665 C   0  0  0  0  0  0  0  0  0  0  0  0
    8.9400   43.5893   38.2130 C   0  0  0  0  0  0  0  0  0  0  0  0
    8.0081   42.5371   37.9898 C   0  0  0  0  0  0  0  0  0  0  0  0
   10.0606   43.3528   39.0340 C   0  0  0  0  0  0  0  0  0  0  0  0
    6.8530   42.7015   37.1421 N   0  0  0  0  0  4  0  0  0  0  0  0
    8.2286   41.2889   38.6043 C   0  0  0  0  0  0  0  0  0  0  0  0
   10.2535   42.1099   39.6363 C   0  0  0  0  0  0  0  0  0  0  0  0
    6.1678   43.8926   37.1018 O   0  0  0  0  0  1  0  0  0  0  0  0
    6.3534   41.7109   36.5673 O   0  0  0  0  0  0  0  0  0  0  0  0
    9.3378   41.0811   39.4245 C   0  0  0  0  0  0  0  0  0  0  0  0
    8.8065   40.1918   34.2115 O   0  0  0  0  0  0  0  0  0  0  0  0
   11.2355   40.7912   33.3677 O   0  0  0  0  0  0  0  0  0  0  0  0
   10.9122   40.6862   31.9952 C   0  0  0  0  0  0  0  0  0  0  0  0
   11.5166   39.3800   31.4410 C   0  0  0  0  0  0  0  0  0  0  0  0
   12.7487   39.0888   32.0760 O   0  0  0  0  0  0  0  0  0  0  0  0
   10.6049   38.1879   31.6653 C   0  0  0  0  0  0  0  0  0  0  0  0
   12.9416   37.6829   32.0274 C   0  0  0  0  0  0  0  0  0  0  0  0
    9.6367   38.0937   30.6485 O   0  0  0  0  0  0  0  0  0  0  0  0
   11.5827   37.0180   31.6932 C   0  0  0  0  0  0  0  0  0  0  0  0
   13.4915   37.2179   33.3236 N   0  0  0  0  0  0  0  0  0  0  0  0
   11.6145   36.3183   30.4669 O   0  0  0  0  0  0  0  0  0  0  0  0
   14.4771   36.3275   33.5732 C   0  0  0  0  0  0  0  0  0  0  0  0
   13.1180   37.6319   34.5684 C   0  0  0  0  0  0  0  0  0  0  0  0
   15.2082   35.6148   32.6745 N   0  0  0  0  0  0  0  0  0  0  0  0
   14.6731   36.2274   34.9187 C   0  0  0  0  0  0  0  0  0  0  0  0
   13.8221   37.0458   35.5783 N   0  0  0  0  0  0  0  0  0  0  0  0
   16.1645   34.7595   33.1556 C   0  0  0  0  0  0  0  0  0  0  0  0
   15.6509   35.3486   35.4136 C   0  0  0  0  0  0  0  0  0  0  0  0
   16.3787   34.6303   34.5051 N   0  0  0  0  0  0  0  0  0  0  0  0
   15.8988   35.1920   36.8094 N   0  0  0  0  0  0  0  0  0  0  0  0
    9.8385   44.9828   32.1470 H   0  0  0  0  0  0  0  0  0  0  0  0
   11.1685   46.2306   34.5023 H   0  0  0  0  0  0  0  0  0  0  0  0
   10.8533   46.9443   33.0068 H   0  0  0  0  0  0  0  0  0  0  0  0
    8.3781   46.6128   33.2803 H   0  0  0  0  0  0  0  0  0  0  0  0
    7.8015   44.9479   33.5715 H   0  0  0  0  0  0  0  0  0  0  0  0
    9.6583   45.6030   37.8253 H   0  0  0  0  0  0  0  0  0  0  0  0
    7.8839   45.4483   37.9426 H   0  0  0  0  0  0  0  0  0  0  0  0
   10.7907   44.1336   39.2100 H   0  0  0  0  0  0  0  0  0  0  0  0
    7.5331   40.4730   38.4544 H   0  0  0  0  0  0  0  0  0  0  0  0
   11.1116   41.9449   40.2739 H   0  0  0  0  0  0  0  0  0  0  0  0
    9.4869   40.1188   39.8954 H   0  0  0  0  0  0  0  0  0  0  0  0
   11.3841   41.5431   31.4687 H   0  0  0  0  0  0  0  0  0  0  0  0
    9.8217   40.7223   31.7606 H   0  0  0  0  0  0  0  0  0  0  0  0
   11.6991   39.5073   30.3489 H   0  0  0  0  0  0  0  0  0  0  0  0
   10.1113   38.2739   32.6624 H   0  0  0  0  0  0  0  0  0  0  0  0
   13.6828   37.4634   31.2268 H   0  0  0  0  0  0  0  0  0  0  0  0
    9.0034   37.3839   30.9317 H   0  0  0  0  0  0  0  0  0  0  0  0
   11.2830   36.3038   32.4917 H   0  0  0  0  0  0  0  0  0  0  0  0
   11.8856   36.9593   29.7584 H   0  0  0  0  0  0  0  0  0  0  0  0
   12.3360   38.3599   34.7431 H   0  0  0  0  0  0  0  0  0  0  0  0
   16.7586   34.1789   32.4634 H   0  0  0  0  0  0  0  0  0  0  0  0
   16.6360   34.5314   37.1415 H   0  0  0  0  0  0  0  0  0  0  0  0
   15.3522   35.7353   37.5138 H   0  0  0  0  0  0  0  0  0  0  0  0
  1  2  2  0
  1  3  1  0
  3  4  1  0
  4  5  1  0
  6  1  1  0
  7  6  1  0
  6  8  1  0
  8  9  1  0
  9 10  1  0
  9 11  2  0
 10 12  1  0
 12 13  1  0
 13 14  2  0
 15 13  1  0
 14 16  1  0
 14 17  1  0
 18 15  2  0
 16 19  1  0
 16 20  2  0
 17 21  2  0
 21 18  1  0
  4 22  2  0
  4 23  1  0
 24 23  1  0
 24 25  1  0
 25 26  1  0
 25 27  1  0
 26 28  1  0
 27 29  1  0
 27 30  1  0
 30 28  1  0
 28 31  1  0
 30 32  1  0
 33 31  1  0
 34 31  1  0
 35 33  2  0
 33 36  1  0
 37 34  2  0
 38 35  1  0
 36 39  2  0
 36 37  1  0
 40 38  2  0
 40 39  1  0
 39 41  1  0
  6 42  1  6
  7 43  1  0
  7 44  1  0
  8 45  1  0
  8 46  1  0
 12 47  1  0
 12 48  1  0
 15 49  1  0
 17 50  1  0
 18 51  1  0
 21 52  1  0
 24 53  1  0
 24 54  1  0
 25 55  1  0
 27 56  1  0
 28 57  1  0
 29 58  1  0
 30 59  1  0
 32 60  1  0
 34 61  1  0
 38 62  1  0
 41 63  1  0
 41 64  1  0
M  CHG  3   5  -1  16   1  19  -1
M  END
>  <EmbedRMS>  (412) 
0.08775933326658396

$$$$

     RDKit          3D

 64 67  0  0  0  0  0  0  0  0999 V2000
   10.2826   43.7715   33.8168 C   0  0  0  0  0  0  0  0  0  0  0  0
   11.4061   43.5816   34.3688 O   0  0  0  0  0  0  0  0  0  0  0  0
    9.3628   42.7323   33.7083 O   0  0  0  0  0  0  0  0  0  0  0  0
    9.8841   41.2328   34.2839 P   0  0  0  0  0  5  0  0  0  0  0  0
   10.3733   41.4625   35.8713 O   0  0  0  0  0  1  0  0  0  0  0  0
    9.9768   45.1042   33.2219 C   0  0  2  0  0  0  0  0  0  0  0  0
   11.0587   46.0567   33.4846 N   0  0  0  0  0  0  0  0  0  0  0  0
    8.6206   45.6667   33.6893 C   0  0  0  0  0  0  0  0  0  0  0  0
    8.5262   45.8476   35.1754 C   0  0  0  0  0  0  0  0  0  0  0  0
    7.7665   44.9474   35.9310 O   0  0  0  0  0  0  0  0  0  0  0  0
    9.1057   46.8228   35.7262 O   0  0  0  0  0  0  0  0  0  0  0  0
    7.6392   45.0247   37.3496 C   0  0  0  0  0  0  0  0  0  0  0  0
    8.8347   44.3936   38.0196 C   0  0  0  0  0  0  0  0  0  0  0  0
    8.9287   42.9921   38.2377 C   0  0  0  0  0  0  0  0  0  0  0  0
    9.8814   45.2281   38.4512 C   0  0  0  0  0  0  0  0  0  0  0  0
    7.9114   42.0770   37.7892 N   0  0  0  0  0  4  0  0  0  0  0  0
   10.0477   42.4808   38.9196 C   0  0  0  0  0  0  0  0  0  0  0  0
   10.9924   44.6965   39.1065 C   0  0  0  0  0  0  0  0  0  0  0  0
    7.7033   40.8971   38.4660 O   0  0  0  0  0  1  0  0  0  0  0  0
    7.3374   42.2471   36.6943 O   0  0  0  0  0  0  0  0  0  0  0  0
   11.0727   43.3264   39.3452 C   0  0  0  0  0  0  0  0  0  0  0  0
    8.8069   40.1897   34.2096 O   0  0  0  0  0  0  0  0  0  0  0  0
   11.2355   40.7917   33.3659 O   0  0  0  0  0  0  0  0  0  0  0  0
   10.9134   40.6883   31.9935 C   0  0  0  0  0  0  0  0  0  0  0  0
   11.5254   39.3871   31.4362 C   0  0  0  0  0  0  0  0  0  0  0  0
   12.7484   39.0897   32.0822 O   0  0  0  0  0  0  0  0  0  0  0  0
   10.6120   38.1892   31.6460 C   0  0  0  0  0  0  0  0  0  0  0  0
   12.9371   37.6831   32.0302 C   0  0  0  0  0  0  0  0  0  0  0  0
    9.6147   38.0835   30.6537 O   0  0  0  0  0  0  0  0  0  0  0  0
   11.5793   37.0137   31.7014 C   0  0  0  0  0  0  0  0  0  0  0  0
   13.4906   37.2172   33.3243 N   0  0  0  0  0  0  0  0  0  0  0  0
   11.6218   36.3253   30.4725 O   0  0  0  0  0  0  0  0  0  0  0  0
   14.4762   36.3268   33.5731 C   0  0  0  0  0  0  0  0  0  0  0  0
   13.1181   37.6310   34.5695 C   0  0  0  0  0  0  0  0  0  0  0  0
   15.2064   35.6138   32.6740 N   0  0  0  0  0  0  0  0  0  0  0  0
   14.6735   36.2271   34.9185 C   0  0  0  0  0  0  0  0  0  0  0  0
   13.8228   37.0451   35.5788 N   0  0  0  0  0  0  0  0  0  0  0  0
   16.1638   34.7594   33.1546 C   0  0  0  0  0  0  0  0  0  0  0  0
   15.6518   35.3490   35.4131 C   0  0  0  0  0  0  0  0  0  0  0  0
   16.3794   34.6309   34.5041 N   0  0  0  0  0  0  0  0  0  0  0  0
   15.9005   35.1931   36.8090 N   0  0  0  0  0  0  0  0  0  0  0  0
    9.9068   44.9612   32.1208 H   0  0  0  0  0  0  0  0  0  0  0  0
   11.9221   45.7409   32.9846 H   0  0  0  0  0  0  0  0  0  0  0  0
   11.2765   46.0928   34.5073 H   0  0  0  0  0  0  0  0  0  0  0  0
    7.8066   44.9871   33.3550 H   0  0  0  0  0  0  0  0  0  0  0  0
    8.4443   46.6474   33.1963 H   0  0  0  0  0  0  0  0  0  0  0  0
    7.5094   46.0829   37.6674 H   0  0  0  0  0  0  0  0  0  0  0  0
    6.7116   44.5013   37.6612 H   0  0  0  0  0  0  0  0  0  0  0  0
    9.8330   46.2981   38.2924 H   0  0  0  0  0  0  0  0  0  0  0  0
   10.1394   41.4176   39.1016 H   0  0  0  0  0  0  0  0  0  0  0  0
   11.7896   45.3501   39.4365 H   0  0  0  0  0  0  0  0  0  0  0  0
   11.9337   42.9169   39.8577 H   0  0  0  0  0  0  0  0  0  0  0  0
   11.3796   41.5504   31.4702 H   0  0  0  0  0  0  0  0  0  0  0  0
    9.8230   40.7170   31.7574 H   0  0  0  0  0  0  0  0  0  0  0  0
   11.7288   39.5282   30.3501 H   0  0  0  0  0  0  0  0  0  0  0  0
   10.1137   38.2717   32.6379 H   0  0  0  0  0  0  0  0  0  0  0  0
   13.6724   37.4644   31.2241 H   0  0  0  0  0  0  0  0  0  0  0  0
   10.0533   38.1079   29.7638 H   0  0  0  0  0  0  0  0  0  0  0  0
   11.2646   36.3135   32.5107 H   0  0  0  0  0  0  0  0  0  0  0  0
   12.1554   35.5034   30.6316 H   0  0  0  0  0  0  0  0  0  0  0  0
   12.3362   38.3589   34.7452 H   0  0  0  0  0  0  0  0  0  0  0  0
   16.7572   34.1789   32.4618 H   0  0  0  0  0  0  0  0  0  0  0  0
   15.3533   35.7353   37.5139 H   0  0  0  0  0  0  0  0  0  0  0  0
   16.6365   34.5314   37.1414 H   0  0  0  0  0  0  0  0  0  0  0  0
  1  2  2  0
  1  3  1  0
  3  4  1  0
  4  5  1  0
  6  1  1  0
  7  6  1  0
  6  8  1  0
  8  9  1  0
  9 10  1  0
  9 11  2  0
 10 12  1  0
 12 13  1  0
 13 14  2  0
 15 13  1  0
 14 16  1  0
 14 17  1  0
 18 15  2  0
 16 19  1  0
 16 20  2  0
 17 21  2  0
 21 18  1  0
  4 22  2  0
  4 23  1  0
 24 23  1  0
 24 25  1  0
 25 26  1  0
 25 27  1  0
 26 28  1  0
 27 29  1  0
 27 30  1  0
 30 28  1  0
 28 31  1  0
 30 32  1  0
 33 31  1  0
 34 31  1  0
 35 33  2  0
 33 36  1  0
 37 34  2  0
 38 35  1  0
 36 39  2  0
 36 37  1  0
 40 38  2  0
 40 39  1  0
 39 41  1  0
  6 42  1  6
  7 43  1  0
  7 44  1  0
  8 45  1  0
  8 46  1  0
 12 47  1  0
 12 48  1  0
 15 49  1  0
 17 50  1  0
 18 51  1  0
 21 52  1  0
 24 53  1  0
 24 54  1  0
 25 55  1  0
 27 56  1  0
 28 57  1  0
 29 58  1  0
 30 59  1  0
 32 60  1  0
 34 61  1  0
 38 62  1  0
 41 63  1  0
 41 64  1  0
M  CHG  3   5  -1  16   1  19  -1
M  END
>  <EmbedRMS>  (413) 
0.08841747414794397

$$$$

     RDKit          3D

 64 67  0  0  0  0  0  0  0  0999 V2000
   10.2844   43.7742   33.8069 C   0  0  0  0  0  0  0  0  0  0  0  0
   11.4068   43.5903   34.3637 O   0  0  0  0  0  0  0  0  0  0  0  0
    9.3681   42.7309   33.6988 O   0  0  0  0  0  0  0  0  0  0  0  0
    9.8860   41.2341   34.2839 P   0  0  0  0  0  5  0  0  0  0  0  0
   10.3655   41.4697   35.8747 O   0  0  0  0  0  1  0  0  0  0  0  0
    9.9490   45.1165   33.2549 C   0  0  2  0  0  0  0  0  0  0  0  0
   11.0756   46.0281   33.4731 N   0  0  0  0  0  0  0  0  0  0  0  0
    8.6781   45.6533   33.9429 C   0  0  0  0  0  0  0  0  0  0  0  0
    8.1776   46.9011   33.2833 C   0  0  0  0  0  0  0  0  0  0  0  0
    8.5265   48.1459   33.8138 O   0  0  0  0  0  0  0  0  0  0  0  0
    7.4776   46.8200   32.2371 O   0  0  0  0  0  0  0  0  0  0  0  0
    8.1259   49.3774   33.2183 C   0  0  0  0  0  0  0  0  0  0  0  0
    8.7078   50.5544   33.9684 C   0  0  0  0  0  0  0  0  0  0  0  0
    8.0592   51.8190   33.9873 C   0  0  0  0  0  0  0  0  0  0  0  0
    9.9394   50.4093   34.6382 C   0  0  0  0  0  0  0  0  0  0  0  0
    6.8562   52.0677   33.2391 N   0  0  0  0  0  4  0  0  0  0  0  0
    8.6127   52.8640   34.7477 C   0  0  0  0  0  0  0  0  0  0  0  0
   10.4817   51.4662   35.3704 C   0  0  0  0  0  0  0  0  0  0  0  0
    5.9318   52.9732   33.7069 O   0  0  0  0  0  1  0  0  0  0  0  0
    6.7309   51.6274   32.0777 O   0  0  0  0  0  0  0  0  0  0  0  0
    9.8137   52.6869   35.4353 C   0  0  0  0  0  0  0  0  0  0  0  0
    8.8086   40.1912   34.2076 O   0  0  0  0  0  0  0  0  0  0  0  0
   11.2387   40.7905   33.3693 O   0  0  0  0  0  0  0  0  0  0  0  0
   10.9192   40.6905   31.9959 C   0  0  0  0  0  0  0  0  0  0  0  0
   11.5177   39.3823   31.4410 C   0  0  0  0  0  0  0  0  0  0  0  0
   12.7496   39.0891   32.0754 O   0  0  0  0  0  0  0  0  0  0  0  0
   10.6037   38.1899   31.6659 C   0  0  0  0  0  0  0  0  0  0  0  0
   12.9401   37.6832   32.0276 C   0  0  0  0  0  0  0  0  0  0  0  0
    9.6377   38.0785   30.6474 O   0  0  0  0  0  0  0  0  0  0  0  0
   11.5803   37.0203   31.6937 C   0  0  0  0  0  0  0  0  0  0  0  0
   13.4902   37.2177   33.3237 N   0  0  0  0  0  0  0  0  0  0  0  0
   11.6117   36.3192   30.4680 O   0  0  0  0  0  0  0  0  0  0  0  0
   14.4759   36.3271   33.5731 C   0  0  0  0  0  0  0  0  0  0  0  0
   13.1176   37.6317   34.5688 C   0  0  0  0  0  0  0  0  0  0  0  0
   15.2064   35.6141   32.6742 N   0  0  0  0  0  0  0  0  0  0  0  0
   14.6729   36.2274   34.9184 C   0  0  0  0  0  0  0  0  0  0  0  0
   13.8221   37.0457   35.5783 N   0  0  0  0  0  0  0  0  0  0  0  0
   16.1637   34.7596   33.1549 C   0  0  0  0  0  0  0  0  0  0  0  0
   15.6514   35.3493   35.4133 C   0  0  0  0  0  0  0  0  0  0  0  0
   16.3791   34.6312   34.5044 N   0  0  0  0  0  0  0  0  0  0  0  0
   15.9001   35.1935   36.8091 N   0  0  0  0  0  0  0  0  0  0  0  0
    9.7629   45.0051   32.1624 H   0  0  0  0  0  0  0  0  0  0  0  0
   10.8481   46.9541   33.0448 H   0  0  0  0  0  0  0  0  0  0  0  0
   11.8966   45.6750   32.9281 H   0  0  0  0  0  0  0  0  0  0  0  0
    7.8686   44.8917   33.9000 H   0  0  0  0  0  0  0  0  0  0  0  0
    8.8878   45.8614   35.0151 H   0  0  0  0  0  0  0  0  0  0  0  0
    8.4782   49.4149   32.1650 H   0  0  0  0  0  0  0  0  0  0  0  0
    7.0160   49.4200   33.2371 H   0  0  0  0  0  0  0  0  0  0  0  0
   10.4818   49.4727   34.6053 H   0  0  0  0  0  0  0  0  0  0  0  0
    8.1266   53.8306   34.7852 H   0  0  0  0  0  0  0  0  0  0  0  0
   11.4219   51.3369   35.8910 H   0  0  0  0  0  0  0  0  0  0  0  0
   10.2353   53.5039   36.0066 H   0  0  0  0  0  0  0  0  0  0  0  0
   11.4003   41.5453   31.4742 H   0  0  0  0  0  0  0  0  0  0  0  0
    9.8313   40.7397   31.7557 H   0  0  0  0  0  0  0  0  0  0  0  0
   11.6991   39.5089   30.3487 H   0  0  0  0  0  0  0  0  0  0  0  0
   10.1131   38.2590   32.6664 H   0  0  0  0  0  0  0  0  0  0  0  0
   13.6800   37.4625   31.2265 H   0  0  0  0  0  0  0  0  0  0  0  0
    8.8953   38.6909   30.8891 H   0  0  0  0  0  0  0  0  0  0  0  0
   11.2830   36.3060   32.4929 H   0  0  0  0  0  0  0  0  0  0  0  0
   11.8860   36.9588   29.7593 H   0  0  0  0  0  0  0  0  0  0  0  0
   12.3360   38.3600   34.7441 H   0  0  0  0  0  0  0  0  0  0  0  0
   16.7572   34.1792   32.4621 H   0  0  0  0  0  0  0  0  0  0  0  0
   15.3528   35.7356   37.5140 H   0  0  0  0  0  0  0  0  0  0  0  0
   16.6362   34.5318   37.1416 H   0  0  0  0  0  0  0  0  0  0  0  0
  1  2  2  0
  1  3  1  0
  3  4  1  0
  4  5  1  0
  6  1  1  0
  7  6  1  0
  6  8  1  0
  8  9  1  0
  9 10  1  0
  9 11  2  0
 10 12  1  0
 12 13  1  0
 13 14  2  0
 15 13  1  0
 14 16  1  0
 14 17  1  0
 18 15  2  0
 16 19  1  0
 16 20  2  0
 17 21  2  0
 21 18  1  0
  4 22  2  0
  4 23  1  0
 24 23  1  0
 24 25  1  0
 25 26  1  0
 25 27  1  0
 26 28  1  0
 27 29  1  0
 27 30  1  0
 30 28  1  0
 28 31  1  0
 30 32  1  0
 33 31  1  0
 34 31  1  0
 35 33  2  0
 33 36  1  0
 37 34  2  0
 38 35  1  0
 36 39  2  0
 36 37  1  0
 40 38  2  0
 40 39  1  0
 39 41  1  0
  6 42  1  6
  7 43  1  0
  7 44  1  0
  8 45  1  0
  8 46  1  0
 12 47  1  0
 12 48  1  0
 15 49  1  0
 17 50  1  0
 18 51  1  0
 21 52  1  0
 24 53  1  0
 24 54  1  0
 25 55  1  0
 27 56  1  0
 28 57  1  0
 29 58  1  0
 30 59  1  0
 32 60  1  0
 34 61  1  0
 38 62  1  0
 41 63  1  0
 41 64  1  0
M  CHG  3   5  -1  16   1  19  -1
M  END
>  <EmbedRMS>  (414) 
0.08841283865667068

$$$$

     RDKit          3D

 64 67  0  0  0  0  0  0  0  0999 V2000
   10.2865   43.7715   33.8019 C   0  0  0  0  0  0  0  0  0  0  0  0
   11.4107   43.5873   34.3546 O   0  0  0  0  0  0  0  0  0  0  0  0
    9.3664   42.7312   33.7004 O   0  0  0  0  0  0  0  0  0  0  0  0
    9.8845   41.2346   34.2857 P   0  0  0  0  0  5  0  0  0  0  0  0
   10.3693   41.4700   35.8743 O   0  0  0  0  0  1  0  0  0  0  0  0
    9.9619   45.1095   33.2355 C   0  0  2  0  0  0  0  0  0  0  0  0
   11.0628   46.0390   33.4968 N   0  0  0  0  0  0  0  0  0  0  0  0
    8.6120   45.6547   33.7559 C   0  0  0  0  0  0  0  0  0  0  0  0
    8.5484   45.7392   35.2530 C   0  0  0  0  0  0  0  0  0  0  0  0
    8.4371   44.5624   35.9968 O   0  0  0  0  0  0  0  0  0  0  0  0
    8.6079   46.8613   35.8258 O   0  0  0  0  0  0  0  0  0  0  0  0
    8.3202   44.5424   37.4146 C   0  0  0  0  0  0  0  0  0  0  0  0
    8.3025   43.1123   37.8953 C   0  0  0  0  0  0  0  0  0  0  0  0
    7.4000   42.1478   37.3671 C   0  0  0  0  0  0  0  0  0  0  0  0
    9.2467   42.7121   38.8590 C   0  0  0  0  0  0  0  0  0  0  0  0
    6.3974   42.4914   36.3932 N   0  0  0  0  0  4  0  0  0  0  0  0
    7.5026   40.8108   37.7903 C   0  0  0  0  0  0  0  0  0  0  0  0
    9.3181   41.3830   39.2779 C   0  0  0  0  0  0  0  0  0  0  0  0
    5.9853   41.5560   35.4721 O   0  0  0  0  0  1  0  0  0  0  0  0
    5.7776   43.5719   36.4690 O   0  0  0  0  0  0  0  0  0  0  0  0
    8.4525   40.4333   38.7399 C   0  0  0  0  0  0  0  0  0  0  0  0
    8.8069   40.1917   34.2120 O   0  0  0  0  0  0  0  0  0  0  0  0
   11.2357   40.7899   33.3694 O   0  0  0  0  0  0  0  0  0  0  0  0
   10.9143   40.6895   31.9965 C   0  0  0  0  0  0  0  0  0  0  0  0
   11.5265   39.3899   31.4376 C   0  0  0  0  0  0  0  0  0  0  0  0
   12.7504   39.0918   32.0840 O   0  0  0  0  0  0  0  0  0  0  0  0
   10.6119   38.1915   31.6453 C   0  0  0  0  0  0  0  0  0  0  0  0
   12.9427   37.6855   32.0296 C   0  0  0  0  0  0  0  0  0  0  0  0
    9.6068   38.0857   30.6603 O   0  0  0  0  0  0  0  0  0  0  0  0
   11.5844   37.0186   31.6880 C   0  0  0  0  0  0  0  0  0  0  0  0
   13.4898   37.2165   33.3250 N   0  0  0  0  0  0  0  0  0  0  0  0
   11.6202   36.3063   30.4693 O   0  0  0  0  0  0  0  0  0  0  0  0
   14.4758   36.3264   33.5739 C   0  0  0  0  0  0  0  0  0  0  0  0
   13.1174   37.6308   34.5700 C   0  0  0  0  0  0  0  0  0  0  0  0
   15.2064   35.6140   32.6746 N   0  0  0  0  0  0  0  0  0  0  0  0
   14.6730   36.2268   34.9191 C   0  0  0  0  0  0  0  0  0  0  0  0
   13.8223   37.0450   35.5793 N   0  0  0  0  0  0  0  0  0  0  0  0
   16.1639   34.7597   33.1551 C   0  0  0  0  0  0  0  0  0  0  0  0
   15.6517   35.3489   35.4136 C   0  0  0  0  0  0  0  0  0  0  0  0
   16.3794   34.6310   34.5046 N   0  0  0  0  0  0  0  0  0  0  0  0
   15.9005   35.1931   36.8094 N   0  0  0  0  0  0  0  0  0  0  0  0
    9.8729   44.9828   32.1341 H   0  0  0  0  0  0  0  0  0  0  0  0
   10.8689   46.9360   32.9946 H   0  0  0  0  0  0  0  0  0  0  0  0
   11.1081   46.2594   34.5185 H   0  0  0  0  0  0  0  0  0  0  0  0
    8.4248   46.6583   33.3154 H   0  0  0  0  0  0  0  0  0  0  0  0
    7.7908   44.9917   33.4075 H   0  0  0  0  0  0  0  0  0  0  0  0
    7.3879   45.0567   37.7298 H   0  0  0  0  0  0  0  0  0  0  0  0
    9.1769   45.0988   37.8548 H   0  0  0  0  0  0  0  0  0  0  0  0
    9.9433   43.4272   39.2790 H   0  0  0  0  0  0  0  0  0  0  0  0
    6.8328   40.0583   37.3941 H   0  0  0  0  0  0  0  0  0  0  0  0
   10.0533   41.0873   40.0152 H   0  0  0  0  0  0  0  0  0  0  0  0
    8.5150   39.4017   39.0616 H   0  0  0  0  0  0  0  0  0  0  0  0
    9.8241   40.7183   31.7597 H   0  0  0  0  0  0  0  0  0  0  0  0
   11.3808   41.5528   31.4753 H   0  0  0  0  0  0  0  0  0  0  0  0
   11.7312   39.5342   30.3523 H   0  0  0  0  0  0  0  0  0  0  0  0
   10.1211   38.2679   32.6414 H   0  0  0  0  0  0  0  0  0  0  0  0
   13.6881   37.4712   31.2320 H   0  0  0  0  0  0  0  0  0  0  0  0
   10.0255   38.1750   29.7657 H   0  0  0  0  0  0  0  0  0  0  0  0
   11.2796   36.3123   32.4916 H   0  0  0  0  0  0  0  0  0  0  0  0
   11.9872   36.9100   29.7715 H   0  0  0  0  0  0  0  0  0  0  0  0
   12.3364   38.3596   34.7455 H   0  0  0  0  0  0  0  0  0  0  0  0
   16.7576   34.1796   32.4622 H   0  0  0  0  0  0  0  0  0  0  0  0
   15.3531   35.7351   37.5143 H   0  0  0  0  0  0  0  0  0  0  0  0
   16.6367   34.5316   37.1418 H   0  0  0  0  0  0  0  0  0  0  0  0
  1  2  2  0
  1  3  1  0
  3  4  1  0
  4  5  1  0
  6  1  1  0
  7  6  1  0
  6  8  1  0
  8  9  1  0
  9 10  1  0
  9 11  2  0
 10 12  1  0
 12 13  1  0
 13 14  2  0
 15 13  1  0
 14 16  1  0
 14 17  1  0
 18 15  2  0
 16 19  1  0
 16 20  2  0
 17 21  2  0
 21 18  1  0
  4 22  2  0
  4 23  1  0
 24 23  1  0
 24 25  1  0
 25 26  1  0
 25 27  1  0
 26 28  1  0
 27 29  1  0
 27 30  1  0
 30 28  1  0
 28 31  1  0
 30 32  1  0
 33 31  1  0
 34 31  1  0
 35 33  2  0
 33 36  1  0
 37 34  2  0
 38 35  1  0
 36 39  2  0
 36 37  1  0
 40 38  2  0
 40 39  1  0
 39 41  1  0
  6 42  1  6
  7 43  1  0
  7 44  1  0
  8 45  1  0
  8 46  1  0
 12 47  1  0
 12 48  1  0
 15 49  1  0
 17 50  1  0
 18 51  1  0
 21 52  1  0
 24 53  1  0
 24 54  1  0
 25 55  1  0
 27 56  1  0
 28 57  1  0
 29 58  1  0
 30 59  1  0
 32 60  1  0
 34 61  1  0
 38 62  1  0
 41 63  1  0
 41 64  1  0
M  CHG  3   5  -1  16   1  19  -1
M  END
>  <EmbedRMS>  (415) 
0.08679217680117945

$$$$

     RDKit          3D

 64 67  0  0  0  0  0  0  0  0999 V2000
   10.2844   43.7743   33.8069 C   0  0  0  0  0  0  0  0  0  0  0  0
   11.4068   43.5902   34.3637 O   0  0  0  0  0  0  0  0  0  0  0  0
    9.3678   42.7312   33.6991 O   0  0  0  0  0  0  0  0  0  0  0  0
    9.8856   41.2344   34.2840 P   0  0  0  0  0  5  0  0  0  0  0  0
   10.3659   41.4698   35.8746 O   0  0  0  0  0  1  0  0  0  0  0  0
    9.9495   45.1164   33.2546 C   0  0  2  0  0  0  0  0  0  0  0  0
   11.0751   46.0281   33.4732 N   0  0  0  0  0  0  0  0  0  0  0  0
    8.6779   45.6532   33.9422 C   0  0  0  0  0  0  0  0  0  0  0  0
    8.1844   46.9142   33.3014 C   0  0  0  0  0  0  0  0  0  0  0  0
    8.2550   48.1210   34.0072 O   0  0  0  0  0  0  0  0  0  0  0  0
    7.7118   46.8788   32.1321 O   0  0  0  0  0  0  0  0  0  0  0  0
    7.8294   49.3687   33.4601 C   0  0  0  0  0  0  0  0  0  0  0  0
    8.7959   49.8479   32.3998 C   0  0  0  0  0  0  0  0  0  0  0  0
    8.3612   50.3508   31.1463 C   0  0  0  0  0  0  0  0  0  0  0  0
   10.1752   49.7820   32.6697 C   0  0  0  0  0  0  0  0  0  0  0  0
    6.9688   50.5491   30.8557 N   0  0  0  0  0  4  0  0  0  0  0  0
    9.3176   50.6907   30.1729 C   0  0  0  0  0  0  0  0  0  0  0  0
   11.1097   50.1411   31.6976 C   0  0  0  0  0  0  0  0  0  0  0  0
    6.1667   51.2137   31.7546 O   0  0  0  0  0  1  0  0  0  0  0  0
    6.5333   50.3304   29.7063 O   0  0  0  0  0  0  0  0  0  0  0  0
   10.6818   50.5832   30.4472 C   0  0  0  0  0  0  0  0  0  0  0  0
    8.8081   40.1914   34.2083 O   0  0  0  0  0  0  0  0  0  0  0  0
   11.2373   40.7905   33.3686 O   0  0  0  0  0  0  0  0  0  0  0  0
   10.9157   40.6897   31.9957 C   0  0  0  0  0  0  0  0  0  0  0  0
   11.5271   39.3897   31.4372 C   0  0  0  0  0  0  0  0  0  0  0  0
   12.7508   39.0915   32.0838 O   0  0  0  0  0  0  0  0  0  0  0  0
   10.6122   38.1916   31.6452 C   0  0  0  0  0  0  0  0  0  0  0  0
   12.9429   37.6852   32.0295 C   0  0  0  0  0  0  0  0  0  0  0  0
    9.6070   38.0858   30.6603 O   0  0  0  0  0  0  0  0  0  0  0  0
   11.5845   37.0185   31.6879 C   0  0  0  0  0  0  0  0  0  0  0  0
   13.4899   37.2163   33.3250 N   0  0  0  0  0  0  0  0  0  0  0  0
   11.6201   36.3062   30.4693 O   0  0  0  0  0  0  0  0  0  0  0  0
   14.4759   36.3263   33.5738 C   0  0  0  0  0  0  0  0  0  0  0  0
   13.1176   37.6307   34.5699 C   0  0  0  0  0  0  0  0  0  0  0  0
   15.2065   35.6139   32.6746 N   0  0  0  0  0  0  0  0  0  0  0  0
   14.6731   36.2267   34.9191 C   0  0  0  0  0  0  0  0  0  0  0  0
   13.8224   37.0450   35.5792 N   0  0  0  0  0  0  0  0  0  0  0  0
   16.1640   34.7596   33.1551 C   0  0  0  0  0  0  0  0  0  0  0  0
   15.6517   35.3489   35.4136 C   0  0  0  0  0  0  0  0  0  0  0  0
   16.3795   34.6310   34.5046 N   0  0  0  0  0  0  0  0  0  0  0  0
   15.9006   35.1931   36.8094 N   0  0  0  0  0  0  0  0  0  0  0  0
    9.7647   45.0042   32.1620 H   0  0  0  0  0  0  0  0  0  0  0  0
   10.8457   46.9514   33.0412 H   0  0  0  0  0  0  0  0  0  0  0  0
   11.8968   45.6751   32.9292 H   0  0  0  0  0  0  0  0  0  0  0  0
    7.8632   44.8990   33.8798 H   0  0  0  0  0  0  0  0  0  0  0  0
    8.8832   45.8401   35.0193 H   0  0  0  0  0  0  0  0  0  0  0  0
    7.7959   50.1223   34.2743 H   0  0  0  0  0  0  0  0  0  0  0  0
    6.7990   49.2441   33.0694 H   0  0  0  0  0  0  0  0  0  0  0  0
   10.5290   49.4330   33.6321 H   0  0  0  0  0  0  0  0  0  0  0  0
    9.0043   51.0668   29.2071 H   0  0  0  0  0  0  0  0  0  0  0  0
   12.1681   50.0710   31.9131 H   0  0  0  0  0  0  0  0  0  0  0  0
   11.4084   50.8581   29.6934 H   0  0  0  0  0  0  0  0  0  0  0  0
   11.3828   41.5525   31.4742 H   0  0  0  0  0  0  0  0  0  0  0  0
    9.8256   40.7191   31.7584 H   0  0  0  0  0  0  0  0  0  0  0  0
   11.7319   39.5336   30.3518 H   0  0  0  0  0  0  0  0  0  0  0  0
   10.1216   38.2683   32.6412 H   0  0  0  0  0  0  0  0  0  0  0  0
   13.6882   37.4707   31.2319 H   0  0  0  0  0  0  0  0  0  0  0  0
   10.0256   38.1750   29.7656 H   0  0  0  0  0  0  0  0  0  0  0  0
   11.2795   36.3123   32.4915 H   0  0  0  0  0  0  0  0  0  0  0  0
   11.9871   36.9099   29.7714 H   0  0  0  0  0  0  0  0  0  0  0  0
   12.3365   38.3596   34.7453 H   0  0  0  0  0  0  0  0  0  0  0  0
   16.7577   34.1794   32.4622 H   0  0  0  0  0  0  0  0  0  0  0  0
   15.3532   35.7351   37.5144 H   0  0  0  0  0  0  0  0  0  0  0  0
   16.6368   34.5316   37.1418 H   0  0  0  0  0  0  0  0  0  0  0  0
  1  2  2  0
  1  3  1  0
  3  4  1  0
  4  5  1  0
  6  1  1  0
  7  6  1  0
  6  8  1  0
  8  9  1  0
  9 10  1  0
  9 11  2  0
 10 12  1  0
 12 13  1  0
 13 14  2  0
 15 13  1  0
 14 16  1  0
 14 17  1  0
 18 15  2  0
 16 19  1  0
 16 20  2  0
 17 21  2  0
 21 18  1  0
  4 22  2  0
  4 23  1  0
 24 23  1  0
 24 25  1  0
 25 26  1  0
 25 27  1  0
 26 28  1  0
 27 29  1  0
 27 30  1  0
 30 28  1  0
 28 31  1  0
 30 32  1  0
 33 31  1  0
 34 31  1  0
 35 33  2  0
 33 36  1  0
 37 34  2  0
 38 35  1  0
 36 39  2  0
 36 37  1  0
 40 38  2  0
 40 39  1  0
 39 41  1  0
  6 42  1  6
  7 43  1  0
  7 44  1  0
  8 45  1  0
  8 46  1  0
 12 47  1  0
 12 48  1  0
 15 49  1  0
 17 50  1  0
 18 51  1  0
 21 52  1  0
 24 53  1  0
 24 54  1  0
 25 55  1  0
 27 56  1  0
 28 57  1  0
 29 58  1  0
 30 59  1  0
 32 60  1  0
 34 61  1  0
 38 62  1  0
 41 63  1  0
 41 64  1  0
M  CHG  3   5  -1  16   1  19  -1
M  END
>  <EmbedRMS>  (416) 
0.08707288397253657

$$$$

     RDKit          3D

 64 67  0  0  0  0  0  0  0  0999 V2000
   10.2858   43.7714   33.8105 C   0  0  0  0  0  0  0  0  0  0  0  0
   11.4095   43.5823   34.3625 O   0  0  0  0  0  0  0  0  0  0  0  0
    9.3664   42.7312   33.7026 O   0  0  0  0  0  0  0  0  0  0  0  0
    9.8841   41.2333   34.2850 P   0  0  0  0  0  5  0  0  0  0  0  0
   10.3648   41.4679   35.8755 O   0  0  0  0  0  1  0  0  0  0  0  0
    9.9615   45.1119   33.2449 C   0  0  2  0  0  0  0  0  0  0  0  0
   11.0649   46.0485   33.4751 N   0  0  0  0  0  0  0  0  0  0  0  0
    8.6627   45.6573   33.8617 C   0  0  0  0  0  0  0  0  0  0  0  0
    8.2693   46.9548   33.2266 C   0  0  0  0  0  0  0  0  0  0  0  0
    8.7563   48.1533   33.7550 O   0  0  0  0  0  0  0  0  0  0  0  0
    7.5366   46.9538   32.1995 O   0  0  0  0  0  0  0  0  0  0  0  0
    8.4450   49.4244   33.1931 C   0  0  0  0  0  0  0  0  0  0  0  0
    9.0940   50.5154   34.0076 C   0  0  0  0  0  0  0  0  0  0  0  0
    8.8974   50.6314   35.4109 C   0  0  0  0  0  0  0  0  0  0  0  0
    9.9462   51.4268   33.3561 C   0  0  0  0  0  0  0  0  0  0  0  0
    8.0223   49.7448   36.1331 N   0  0  0  0  0  4  0  0  0  0  0  0
    9.5880   51.6336   36.1177 C   0  0  0  0  0  0  0  0  0  0  0  0
   10.6083   52.4227   34.0748 C   0  0  0  0  0  0  0  0  0  0  0  0
    6.8233   49.3456   35.5922 O   0  0  0  0  0  1  0  0  0  0  0  0
    8.2669   49.4560   37.3228 O   0  0  0  0  0  0  0  0  0  0  0  0
   10.4335   52.5228   35.4534 C   0  0  0  0  0  0  0  0  0  0  0  0
    8.8067   40.1905   34.2084 O   0  0  0  0  0  0  0  0  0  0  0  0
   11.2363   40.7903   33.3692 O   0  0  0  0  0  0  0  0  0  0  0  0
   10.9151   40.6896   31.9962 C   0  0  0  0  0  0  0  0  0  0  0  0
   11.5272   39.3900   31.4374 C   0  0  0  0  0  0  0  0  0  0  0  0
   12.7510   39.0917   32.0838 O   0  0  0  0  0  0  0  0  0  0  0  0
   10.6126   38.1917   31.6451 C   0  0  0  0  0  0  0  0  0  0  0  0
   12.9432   37.6853   32.0292 C   0  0  0  0  0  0  0  0  0  0  0  0
    9.6074   38.0859   30.6601 O   0  0  0  0  0  0  0  0  0  0  0  0
   11.5847   37.0187   31.6882 C   0  0  0  0  0  0  0  0  0  0  0  0
   13.4901   37.2163   33.3247 N   0  0  0  0  0  0  0  0  0  0  0  0
   11.6200   36.3054   30.4701 O   0  0  0  0  0  0  0  0  0  0  0  0
   14.4760   36.3262   33.5736 C   0  0  0  0  0  0  0  0  0  0  0  0
   13.1176   37.6306   34.5695 C   0  0  0  0  0  0  0  0  0  0  0  0
   15.2064   35.6134   32.6744 N   0  0  0  0  0  0  0  0  0  0  0  0
   14.6731   36.2267   34.9188 C   0  0  0  0  0  0  0  0  0  0  0  0
   13.8224   37.0449   35.5789 N   0  0  0  0  0  0  0  0  0  0  0  0
   16.1638   34.7591   33.1550 C   0  0  0  0  0  0  0  0  0  0  0  0
   15.6518   35.3489   35.4134 C   0  0  0  0  0  0  0  0  0  0  0  0
   16.3794   34.6308   34.5045 N   0  0  0  0  0  0  0  0  0  0  0  0
   15.9003   35.1933   36.8093 N   0  0  0  0  0  0  0  0  0  0  0  0
    9.8154   44.9923   32.1483 H   0  0  0  0  0  0  0  0  0  0  0  0
   11.9232   45.7028   32.9863 H   0  0  0  0  0  0  0  0  0  0  0  0
   11.2710   46.1208   34.4990 H   0  0  0  0  0  0  0  0  0  0  0  0
    8.7944   45.8101   34.9553 H   0  0  0  0  0  0  0  0  0  0  0  0
    7.8372   44.9255   33.7190 H   0  0  0  0  0  0  0  0  0  0  0  0
    8.8034   49.4466   32.1406 H   0  0  0  0  0  0  0  0  0  0  0  0
    7.3460   49.5794   33.1699 H   0  0  0  0  0  0  0  0  0  0  0  0
   10.1082   51.3633   32.2871 H   0  0  0  0  0  0  0  0  0  0  0  0
    9.4578   51.7376   37.1877 H   0  0  0  0  0  0  0  0  0  0  0  0
   11.2634   53.1149   33.5616 H   0  0  0  0  0  0  0  0  0  0  0  0
   10.9511   53.2942   36.0094 H   0  0  0  0  0  0  0  0  0  0  0  0
   11.3815   41.5528   31.4749 H   0  0  0  0  0  0  0  0  0  0  0  0
    9.8250   40.7181   31.7593 H   0  0  0  0  0  0  0  0  0  0  0  0
   11.7322   39.5343   30.3521 H   0  0  0  0  0  0  0  0  0  0  0  0
   10.1221   38.2685   32.6412 H   0  0  0  0  0  0  0  0  0  0  0  0
   13.6884   37.4707   31.2315 H   0  0  0  0  0  0  0  0  0  0  0  0
   10.0264   38.1750   29.7655 H   0  0  0  0  0  0  0  0  0  0  0  0
   11.2798   36.3132   32.4925 H   0  0  0  0  0  0  0  0  0  0  0  0
   11.9854   36.9089   29.7714 H   0  0  0  0  0  0  0  0  0  0  0  0
   12.3363   38.3591   34.7448 H   0  0  0  0  0  0  0  0  0  0  0  0
   16.7569   34.1782   32.4622 H   0  0  0  0  0  0  0  0  0  0  0  0
   15.3526   35.7354   37.5139 H   0  0  0  0  0  0  0  0  0  0  0  0
   16.6364   34.5318   37.1421 H   0  0  0  0  0  0  0  0  0  0  0  0
  1  2  2  0
  1  3  1  0
  3  4  1  0
  4  5  1  0
  6  1  1  0
  7  6  1  0
  6  8  1  0
  8  9  1  0
  9 10  1  0
  9 11  2  0
 10 12  1  0
 12 13  1  0
 13 14  2  0
 15 13  1  0
 14 16  1  0
 14 17  1  0
 18 15  2  0
 16 19  1  0
 16 20  2  0
 17 21  2  0
 21 18  1  0
  4 22  2  0
  4 23  1  0
 24 23  1  0
 24 25  1  0
 25 26  1  0
 25 27  1  0
 26 28  1  0
 27 29  1  0
 27 30  1  0
 30 28  1  0
 28 31  1  0
 30 32  1  0
 33 31  1  0
 34 31  1  0
 35 33  2  0
 33 36  1  0
 37 34  2  0
 38 35  1  0
 36 39  2  0
 36 37  1  0
 40 38  2  0
 40 39  1  0
 39 41  1  0
  6 42  1  6
  7 43  1  0
  7 44  1  0
  8 45  1  0
  8 46  1  0
 12 47  1  0
 12 48  1  0
 15 49  1  0
 17 50  1  0
 18 51  1  0
 21 52  1  0
 24 53  1  0
 24 54  1  0
 25 55  1  0
 27 56  1  0
 28 57  1  0
 29 58  1  0
 30 59  1  0
 32 60  1  0
 34 61  1  0
 38 62  1  0
 41 63  1  0
 41 64  1  0
M  CHG  3   5  -1  16   1  19  -1
M  END
>  <EmbedRMS>  (417) 
0.0875786294003775

$$$$

     RDKit          3D

 64 67  0  0  0  0  0  0  0  0999 V2000
   10.2805   43.7742   33.8127 C   0  0  0  0  0  0  0  0  0  0  0  0
   11.4064   43.5885   34.3615 O   0  0  0  0  0  0  0  0  0  0  0  0
    9.3632   42.7325   33.7054 O   0  0  0  0  0  0  0  0  0  0  0  0
    9.8857   41.2342   34.2838 P   0  0  0  0  0  5  0  0  0  0  0  0
   10.3703   41.4671   35.8735 O   0  0  0  0  0  1  0  0  0  0  0  0
    9.9650   45.1074   33.2319 C   0  0  2  0  0  0  0  0  0  0  0  0
   11.0676   46.0374   33.4867 N   0  0  0  0  0  0  0  0  0  0  0  0
    8.6020   45.6647   33.7111 C   0  0  0  0  0  0  0  0  0  0  0  0
    8.3978   45.6364   35.2005 C   0  0  0  0  0  0  0  0  0  0  0  0
    7.2908   44.9611   35.7240 O   0  0  0  0  0  0  0  0  0  0  0  0
    9.1779   46.2690   35.9629 O   0  0  0  0  0  0  0  0  0  0  0  0
    6.9899   44.9397   37.1160 C   0  0  0  0  0  0  0  0  0  0  0  0
    5.6452   44.2936   37.3312 C   0  0  0  0  0  0  0  0  0  0  0  0
    5.4869   42.8869   37.4559 C   0  0  0  0  0  0  0  0  0  0  0  0
    4.5105   45.1216   37.4070 C   0  0  0  0  0  0  0  0  0  0  0  0
    6.5962   41.9804   37.3278 N   0  0  0  0  0  4  0  0  0  0  0  0
    4.2075   42.3626   37.7127 C   0  0  0  0  0  0  0  0  0  0  0  0
    3.2471   44.5789   37.6445 C   0  0  0  0  0  0  0  0  0  0  0  0
    6.5832   40.7781   37.9970 O   0  0  0  0  0  1  0  0  0  0  0  0
    7.4856   42.1830   36.4771 O   0  0  0  0  0  0  0  0  0  0  0  0
    3.0971   43.2030   37.8051 C   0  0  0  0  0  0  0  0  0  0  0  0
    8.8088   40.1905   34.2089 O   0  0  0  0  0  0  0  0  0  0  0  0
   11.2369   40.7932   33.3655 O   0  0  0  0  0  0  0  0  0  0  0  0
   10.9126   40.6863   31.9936 C   0  0  0  0  0  0  0  0  0  0  0  0
   11.5166   39.3797   31.4408 C   0  0  0  0  0  0  0  0  0  0  0  0
   12.7483   39.0888   32.0765 O   0  0  0  0  0  0  0  0  0  0  0  0
   10.6049   38.1876   31.6659 C   0  0  0  0  0  0  0  0  0  0  0  0
   12.9410   37.6831   32.0279 C   0  0  0  0  0  0  0  0  0  0  0  0
    9.6357   38.0929   30.6503 O   0  0  0  0  0  0  0  0  0  0  0  0
   11.5826   37.0180   31.6937 C   0  0  0  0  0  0  0  0  0  0  0  0
   13.4908   37.2178   33.3240 N   0  0  0  0  0  0  0  0  0  0  0  0
   11.6141   36.3180   30.4676 O   0  0  0  0  0  0  0  0  0  0  0  0
   14.4762   36.3270   33.5733 C   0  0  0  0  0  0  0  0  0  0  0  0
   13.1179   37.6317   34.5689 C   0  0  0  0  0  0  0  0  0  0  0  0
   15.2066   35.6141   32.6743 N   0  0  0  0  0  0  0  0  0  0  0  0
   14.6731   36.2273   34.9186 C   0  0  0  0  0  0  0  0  0  0  0  0
   13.8223   37.0456   35.5785 N   0  0  0  0  0  0  0  0  0  0  0  0
   16.1638   34.7595   33.1550 C   0  0  0  0  0  0  0  0  0  0  0  0
   15.6515   35.3491   35.4134 C   0  0  0  0  0  0  0  0  0  0  0  0
   16.3792   34.6310   34.5045 N   0  0  0  0  0  0  0  0  0  0  0  0
   15.9002   35.1933   36.8092 N   0  0  0  0  0  0  0  0  0  0  0  0
    9.8952   44.9666   32.1308 H   0  0  0  0  0  0  0  0  0  0  0  0
   11.1532   46.2330   34.5091 H   0  0  0  0  0  0  0  0  0  0  0  0
   10.8627   46.9447   33.0082 H   0  0  0  0  0  0  0  0  0  0  0  0
    7.7930   45.0684   33.2351 H   0  0  0  0  0  0  0  0  0  0  0  0
    8.4780   46.7091   33.3532 H   0  0  0  0  0  0  0  0  0  0  0  0
    7.7834   44.3958   37.6714 H   0  0  0  0  0  0  0  0  0  0  0  0
    6.9776   45.9805   37.5092 H   0  0  0  0  0  0  0  0  0  0  0  0
    4.6052   46.1947   37.2931 H   0  0  0  0  0  0  0  0  0  0  0  0
    4.0643   41.2948   37.8193 H   0  0  0  0  0  0  0  0  0  0  0  0
    2.3831   45.2277   37.7086 H   0  0  0  0  0  0  0  0  0  0  0  0
    2.1165   42.7847   37.9927 H   0  0  0  0  0  0  0  0  0  0  0  0
   11.3834   41.5434   31.4663 H   0  0  0  0  0  0  0  0  0  0  0  0
    9.8222   40.7205   31.7580 H   0  0  0  0  0  0  0  0  0  0  0  0
   11.6994   39.5061   30.3486 H   0  0  0  0  0  0  0  0  0  0  0  0
   10.1119   38.2723   32.6632 H   0  0  0  0  0  0  0  0  0  0  0  0
   13.6815   37.4637   31.2270 H   0  0  0  0  0  0  0  0  0  0  0  0
    9.0034   37.3828   30.9350 H   0  0  0  0  0  0  0  0  0  0  0  0
   11.2846   36.3041   32.4929 H   0  0  0  0  0  0  0  0  0  0  0  0
   11.8850   36.9591   29.7589 H   0  0  0  0  0  0  0  0  0  0  0  0
   12.3363   38.3600   34.7442 H   0  0  0  0  0  0  0  0  0  0  0  0
   16.7574   34.1791   32.4622 H   0  0  0  0  0  0  0  0  0  0  0  0
   15.3529   35.7355   37.5141 H   0  0  0  0  0  0  0  0  0  0  0  0
   16.6363   34.5316   37.1417 H   0  0  0  0  0  0  0  0  0  0  0  0
  1  2  2  0
  1  3  1  0
  3  4  1  0
  4  5  1  0
  6  1  1  0
  7  6  1  0
  6  8  1  0
  8  9  1  0
  9 10  1  0
  9 11  2  0
 10 12  1  0
 12 13  1  0
 13 14  2  0
 15 13  1  0
 14 16  1  0
 14 17  1  0
 18 15  2  0
 16 19  1  0
 16 20  2  0
 17 21  2  0
 21 18  1  0
  4 22  2  0
  4 23  1  0
 24 23  1  0
 24 25  1  0
 25 26  1  0
 25 27  1  0
 26 28  1  0
 27 29  1  0
 27 30  1  0
 30 28  1  0
 28 31  1  0
 30 32  1  0
 33 31  1  0
 34 31  1  0
 35 33  2  0
 33 36  1  0
 37 34  2  0
 38 35  1  0
 36 39  2  0
 36 37  1  0
 40 38  2  0
 40 39  1  0
 39 41  1  0
  6 42  1  6
  7 43  1  0
  7 44  1  0
  8 45  1  0
  8 46  1  0
 12 47  1  0
 12 48  1  0
 15 49  1  0
 17 50  1  0
 18 51  1  0
 21 52  1  0
 24 53  1  0
 24 54  1  0
 25 55  1  0
 27 56  1  0
 28 57  1  0
 29 58  1  0
 30 59  1  0
 32 60  1  0
 34 61  1  0
 38 62  1  0
 41 63  1  0
 41 64  1  0
M  CHG  3   5  -1  16   1  19  -1
M  END
>  <EmbedRMS>  (418) 
0.08754721648385114

$$$$

     RDKit          3D

 64 67  0  0  0  0  0  0  0  0999 V2000
   10.2860   43.7720   33.8048 C   0  0  0  0  0  0  0  0  0  0  0  0
   11.4085   43.5885   34.3612 O   0  0  0  0  0  0  0  0  0  0  0  0
    9.3675   42.7309   33.6994 O   0  0  0  0  0  0  0  0  0  0  0  0
    9.8854   41.2341   34.2843 P   0  0  0  0  0  5  0  0  0  0  0  0
   10.3651   41.4701   35.8750 O   0  0  0  0  0  1  0  0  0  0  0  0
    9.9529   45.1148   33.2535 C   0  0  2  0  0  0  0  0  0  0  0  0
   11.0715   46.0331   33.4763 N   0  0  0  0  0  0  0  0  0  0  0  0
    8.6603   45.6657   33.8895 C   0  0  0  0  0  0  0  0  0  0  0  0
    8.7916   45.8577   35.3714 C   0  0  0  0  0  0  0  0  0  0  0  0
    9.4354   46.9967   35.8618 O   0  0  0  0  0  0  0  0  0  0  0  0
    8.3539   44.9758   36.1601 O   0  0  0  0  0  0  0  0  0  0  0  0
    9.6344   47.2306   37.2535 C   0  0  0  0  0  0  0  0  0  0  0  0
   10.3645   48.5344   37.4834 C   0  0  0  0  0  0  0  0  0  0  0  0
   11.1816   48.7349   38.6276 C   0  0  0  0  0  0  0  0  0  0  0  0
   10.2128   49.5878   36.5595 C   0  0  0  0  0  0  0  0  0  0  0  0
   11.2935   47.7387   39.6591 N   0  0  0  0  0  4  0  0  0  0  0  0
   11.8869   49.9444   38.7655 C   0  0  0  0  0  0  0  0  0  0  0  0
   10.9069   50.7871   36.7251 C   0  0  0  0  0  0  0  0  0  0  0  0
   10.1781   47.0620   40.0962 O   0  0  0  0  0  1  0  0  0  0  0  0
   12.3600   47.6138   40.2962 O   0  0  0  0  0  0  0  0  0  0  0  0
   11.7514   50.9606   37.8194 C   0  0  0  0  0  0  0  0  0  0  0  0
    8.8081   40.1911   34.2081 O   0  0  0  0  0  0  0  0  0  0  0  0
   11.2382   40.7905   33.3697 O   0  0  0  0  0  0  0  0  0  0  0  0
   10.9190   40.6905   31.9962 C   0  0  0  0  0  0  0  0  0  0  0  0
   11.5176   39.3824   31.4412 C   0  0  0  0  0  0  0  0  0  0  0  0
   12.7495   39.0892   32.0755 O   0  0  0  0  0  0  0  0  0  0  0  0
   10.6036   38.1899   31.6659 C   0  0  0  0  0  0  0  0  0  0  0  0
   12.9401   37.6833   32.0276 C   0  0  0  0  0  0  0  0  0  0  0  0
    9.6377   38.0785   30.6474 O   0  0  0  0  0  0  0  0  0  0  0  0
   11.5804   37.0203   31.6937 C   0  0  0  0  0  0  0  0  0  0  0  0
   13.4902   37.2177   33.3237 N   0  0  0  0  0  0  0  0  0  0  0  0
   11.6118   36.3193   30.4680 O   0  0  0  0  0  0  0  0  0  0  0  0
   14.4759   36.3271   33.5731 C   0  0  0  0  0  0  0  0  0  0  0  0
   13.1176   37.6317   34.5688 C   0  0  0  0  0  0  0  0  0  0  0  0
   15.2064   35.6141   32.6742 N   0  0  0  0  0  0  0  0  0  0  0  0
   14.6729   36.2274   34.9184 C   0  0  0  0  0  0  0  0  0  0  0  0
   13.8221   37.0457   35.5783 N   0  0  0  0  0  0  0  0  0  0  0  0
   16.1637   34.7597   33.1549 C   0  0  0  0  0  0  0  0  0  0  0  0
   15.6514   35.3493   35.4133 C   0  0  0  0  0  0  0  0  0  0  0  0
   16.3791   34.6312   34.5044 N   0  0  0  0  0  0  0  0  0  0  0  0
   15.9001   35.1935   36.8091 N   0  0  0  0  0  0  0  0  0  0  0  0
    9.7829   45.0054   32.1587 H   0  0  0  0  0  0  0  0  0  0  0  0
   11.8822   45.7130   32.8967 H   0  0  0  0  0  0  0  0  0  0  0  0
   10.8099   46.9722   33.0966 H   0  0  0  0  0  0  0  0  0  0  0  0
    7.8130   44.9779   33.6749 H   0  0  0  0  0  0  0  0  0  0  0  0
    8.4076   46.6426   33.4237 H   0  0  0  0  0  0  0  0  0  0  0  0
   10.2281   46.3844   37.6611 H   0  0  0  0  0  0  0  0  0  0  0  0
    8.6506   47.2722   37.7685 H   0  0  0  0  0  0  0  0  0  0  0  0
    9.5637   49.4819   35.6994 H   0  0  0  0  0  0  0  0  0  0  0  0
   12.5240   50.1115   39.6250 H   0  0  0  0  0  0  0  0  0  0  0  0
   10.7912   51.5832   36.0009 H   0  0  0  0  0  0  0  0  0  0  0  0
   12.2906   51.8908   37.9437 H   0  0  0  0  0  0  0  0  0  0  0  0
    9.8311   40.7397   31.7560 H   0  0  0  0  0  0  0  0  0  0  0  0
   11.4000   41.5454   31.4747 H   0  0  0  0  0  0  0  0  0  0  0  0
   11.6990   39.5091   30.3489 H   0  0  0  0  0  0  0  0  0  0  0  0
   10.1131   38.2589   32.6664 H   0  0  0  0  0  0  0  0  0  0  0  0
   13.6800   37.4627   31.2265 H   0  0  0  0  0  0  0  0  0  0  0  0
    8.8953   38.6909   30.8891 H   0  0  0  0  0  0  0  0  0  0  0  0
   11.2830   36.3060   32.4929 H   0  0  0  0  0  0  0  0  0  0  0  0
   11.8859   36.9589   29.7593 H   0  0  0  0  0  0  0  0  0  0  0  0
   12.3360   38.3600   34.7441 H   0  0  0  0  0  0  0  0  0  0  0  0
   16.7572   34.1793   32.4621 H   0  0  0  0  0  0  0  0  0  0  0  0
   16.6362   34.5318   37.1416 H   0  0  0  0  0  0  0  0  0  0  0  0
   15.3528   35.7356   37.5140 H   0  0  0  0  0  0  0  0  0  0  0  0
  1  2  2  0
  1  3  1  0
  3  4  1  0
  4  5  1  0
  6  1  1  0
  7  6  1  0
  6  8  1  0
  8  9  1  0
  9 10  1  0
  9 11  2  0
 10 12  1  0
 12 13  1  0
 13 14  2  0
 15 13  1  0
 14 16  1  0
 14 17  1  0
 18 15  2  0
 16 19  1  0
 16 20  2  0
 17 21  2  0
 21 18  1  0
  4 22  2  0
  4 23  1  0
 24 23  1  0
 24 25  1  0
 25 26  1  0
 25 27  1  0
 26 28  1  0
 27 29  1  0
 27 30  1  0
 30 28  1  0
 28 31  1  0
 30 32  1  0
 33 31  1  0
 34 31  1  0
 35 33  2  0
 33 36  1  0
 37 34  2  0
 38 35  1  0
 36 39  2  0
 36 37  1  0
 40 38  2  0
 40 39  1  0
 39 41  1  0
  6 42  1  6
  7 43  1  0
  7 44  1  0
  8 45  1  0
  8 46  1  0
 12 47  1  0
 12 48  1  0
 15 49  1  0
 17 50  1  0
 18 51  1  0
 21 52  1  0
 24 53  1  0
 24 54  1  0
 25 55  1  0
 27 56  1  0
 28 57  1  0
 29 58  1  0
 30 59  1  0
 32 60  1  0
 34 61  1  0
 38 62  1  0
 41 63  1  0
 41 64  1  0
M  CHG  3   5  -1  16   1  19  -1
M  END
>  <EmbedRMS>  (419) 
0.08833264046921825

$$$$

     RDKit          3D

 64 67  0  0  0  0  0  0  0  0999 V2000
   10.2846   43.7735   33.8086 C   0  0  0  0  0  0  0  0  0  0  0  0
   11.4105   43.5878   34.3568 O   0  0  0  0  0  0  0  0  0  0  0  0
    9.3661   42.7323   33.7041 O   0  0  0  0  0  0  0  0  0  0  0  0
    9.8849   41.2344   34.2852 P   0  0  0  0  0  5  0  0  0  0  0  0
   10.3658   41.4659   35.8756 O   0  0  0  0  0  1  0  0  0  0  0  0
    9.9592   45.1107   33.2406 C   0  0  2  0  0  0  0  0  0  0  0  0
   11.0670   46.0368   33.4835 N   0  0  0  0  0  0  0  0  0  0  0  0
    8.6429   45.6619   33.8253 C   0  0  0  0  0  0  0  0  0  0  0  0
    8.7433   45.9708   35.2898 C   0  0  0  0  0  0  0  0  0  0  0  0
    8.5044   44.9605   36.2291 O   0  0  0  0  0  0  0  0  0  0  0  0
    9.0582   47.1342   35.6625 O   0  0  0  0  0  0  0  0  0  0  0  0
    8.5135   45.1905   37.6385 C   0  0  0  0  0  0  0  0  0  0  0  0
    9.9116   45.4835   38.1391 C   0  0  0  0  0  0  0  0  0  0  0  0
   10.1732   46.4880   39.1069 C   0  0  0  0  0  0  0  0  0  0  0  0
   10.9844   44.7306   37.6290 C   0  0  0  0  0  0  0  0  0  0  0  0
    9.1103   47.2070   39.7529 N   0  0  0  0  0  4  0  0  0  0  0  0
   11.5044   46.7687   39.4636 C   0  0  0  0  0  0  0  0  0  0  0  0
   12.2975   45.0107   38.0083 C   0  0  0  0  0  0  0  0  0  0  0  0
    8.0260   46.5272   40.2583 O   0  0  0  0  0  1  0  0  0  0  0  0
    9.2612   48.4092   40.0539 O   0  0  0  0  0  0  0  0  0  0  0  0
   12.5582   46.0368   38.9144 C   0  0  0  0  0  0  0  0  0  0  0  0
    8.8075   40.1914   34.2081 O   0  0  0  0  0  0  0  0  0  0  0  0
   11.2367   40.7916   33.3689 O   0  0  0  0  0  0  0  0  0  0  0  0
   10.9150   40.6900   31.9960 C   0  0  0  0  0  0  0  0  0  0  0  0
   11.5268   39.3900   31.4376 C   0  0  0  0  0  0  0  0  0  0  0  0
   12.7505   39.0918   32.0841 O   0  0  0  0  0  0  0  0  0  0  0  0
   10.6121   38.1916   31.6453 C   0  0  0  0  0  0  0  0  0  0  0  0
   12.9428   37.6855   32.0296 C   0  0  0  0  0  0  0  0  0  0  0  0
    9.6069   38.0858   30.6603 O   0  0  0  0  0  0  0  0  0  0  0  0
   11.5845   37.0187   31.6880 C   0  0  0  0  0  0  0  0  0  0  0  0
   13.4899   37.2164   33.3250 N   0  0  0  0  0  0  0  0  0  0  0  0
   11.6202   36.3064   30.4693 O   0  0  0  0  0  0  0  0  0  0  0  0
   14.4758   36.3264   33.5739 C   0  0  0  0  0  0  0  0  0  0  0  0
   13.1176   37.6308   34.5699 C   0  0  0  0  0  0  0  0  0  0  0  0
   15.2065   35.6139   32.6746 N   0  0  0  0  0  0  0  0  0  0  0  0
   14.6731   36.2268   34.9191 C   0  0  0  0  0  0  0  0  0  0  0  0
   13.8224   37.0450   35.5792 N   0  0  0  0  0  0  0  0  0  0  0  0
   16.1640   34.7596   33.1551 C   0  0  0  0  0  0  0  0  0  0  0  0
   15.6517   35.3489   35.4136 C   0  0  0  0  0  0  0  0  0  0  0  0
   16.3795   34.6310   34.5045 N   0  0  0  0  0  0  0  0  0  0  0  0
   15.9006   35.1931   36.8094 N   0  0  0  0  0  0  0  0  0  0  0  0
    9.8227   44.9876   32.1425 H   0  0  0  0  0  0  0  0  0  0  0  0
   11.8932   45.7184   32.9252 H   0  0  0  0  0  0  0  0  0  0  0  0
   10.8083   46.9715   33.0913 H   0  0  0  0  0  0  0  0  0  0  0  0
    7.8207   44.9317   33.6627 H   0  0  0  0  0  0  0  0  0  0  0  0
    8.3606   46.5872   33.2769 H   0  0  0  0  0  0  0  0  0  0  0  0
    8.1372   44.2807   38.1509 H   0  0  0  0  0  0  0  0  0  0  0  0
    7.8124   46.0225   37.8554 H   0  0  0  0  0  0  0  0  0  0  0  0
   10.8039   43.9317   36.9238 H   0  0  0  0  0  0  0  0  0  0  0  0
   11.7244   47.5392   40.1918 H   0  0  0  0  0  0  0  0  0  0  0  0
   13.1144   44.4329   37.5956 H   0  0  0  0  0  0  0  0  0  0  0  0
   13.5777   46.2547   39.2054 H   0  0  0  0  0  0  0  0  0  0  0  0
   11.3815   41.5528   31.4742 H   0  0  0  0  0  0  0  0  0  0  0  0
    9.8248   40.7190   31.7592 H   0  0  0  0  0  0  0  0  0  0  0  0
   11.7317   39.5340   30.3522 H   0  0  0  0  0  0  0  0  0  0  0  0
   10.1213   38.2682   32.6413 H   0  0  0  0  0  0  0  0  0  0  0  0
   13.6881   37.4711   31.2319 H   0  0  0  0  0  0  0  0  0  0  0  0
   10.0257   38.1752   29.7656 H   0  0  0  0  0  0  0  0  0  0  0  0
   11.2796   36.3124   32.4916 H   0  0  0  0  0  0  0  0  0  0  0  0
   11.9872   36.9100   29.7715 H   0  0  0  0  0  0  0  0  0  0  0  0
   12.3366   38.3597   34.7454 H   0  0  0  0  0  0  0  0  0  0  0  0
   16.7576   34.1795   32.4622 H   0  0  0  0  0  0  0  0  0  0  0  0
   15.3532   35.7351   37.5143 H   0  0  0  0  0  0  0  0  0  0  0  0
   16.6368   34.5316   37.1418 H   0  0  0  0  0  0  0  0  0  0  0  0
  1  2  2  0
  1  3  1  0
  3  4  1  0
  4  5  1  0
  6  1  1  0
  7  6  1  0
  6  8  1  0
  8  9  1  0
  9 10  1  0
  9 11  2  0
 10 12  1  0
 12 13  1  0
 13 14  2  0
 15 13  1  0
 14 16  1  0
 14 17  1  0
 18 15  2  0
 16 19  1  0
 16 20  2  0
 17 21  2  0
 21 18  1  0
  4 22  2  0
  4 23  1  0
 24 23  1  0
 24 25  1  0
 25 26  1  0
 25 27  1  0
 26 28  1  0
 27 29  1  0
 27 30  1  0
 30 28  1  0
 28 31  1  0
 30 32  1  0
 33 31  1  0
 34 31  1  0
 35 33  2  0
 33 36  1  0
 37 34  2  0
 38 35  1  0
 36 39  2  0
 36 37  1  0
 40 38  2  0
 40 39  1  0
 39 41  1  0
  6 42  1  6
  7 43  1  0
  7 44  1  0
  8 45  1  0
  8 46  1  0
 12 47  1  0
 12 48  1  0
 15 49  1  0
 17 50  1  0
 18 51  1  0
 21 52  1  0
 24 53  1  0
 24 54  1  0
 25 55  1  0
 27 56  1  0
 28 57  1  0
 29 58  1  0
 30 59  1  0
 32 60  1  0
 34 61  1  0
 38 62  1  0
 41 63  1  0
 41 64  1  0
M  CHG  3   5  -1  16   1  19  -1
M  END
>  <EmbedRMS>  (420) 
0.08712536948921931

$$$$

     RDKit          3D

 64 67  0  0  0  0  0  0  0  0999 V2000
   10.2829   43.7755   33.8076 C   0  0  0  0  0  0  0  0  0  0  0  0
   11.4086   43.5914   34.3577 O   0  0  0  0  0  0  0  0  0  0  0  0
    9.3667   42.7319   33.7015 O   0  0  0  0  0  0  0  0  0  0  0  0
    9.8861   41.2347   34.2845 P   0  0  0  0  0  5  0  0  0  0  0  0
   10.3662   41.4697   35.8751 O   0  0  0  0  0  1  0  0  0  0  0  0
    9.9533   45.1118   33.2437 C   0  0  2  0  0  0  0  0  0  0  0  0
   11.0726   46.0268   33.4847 N   0  0  0  0  0  0  0  0  0  0  0  0
    8.6403   45.6442   33.8556 C   0  0  0  0  0  0  0  0  0  0  0  0
    8.2251   46.9365   33.2249 C   0  0  0  0  0  0  0  0  0  0  0  0
    8.5488   48.1445   33.8534 O   0  0  0  0  0  0  0  0  0  0  0  0
    7.6179   46.9273   32.1192 O   0  0  0  0  0  0  0  0  0  0  0  0
    8.1956   49.4208   33.3203 C   0  0  0  0  0  0  0  0  0  0  0  0
    6.7048   49.6728   33.4134 C   0  0  0  0  0  0  0  0  0  0  0  0
    6.0188   50.4632   32.4526 C   0  0  0  0  0  0  0  0  0  0  0  0
    5.9814   49.1327   34.4948 C   0  0  0  0  0  0  0  0  0  0  0  0
    6.7123   51.1360   31.3879 N   0  0  0  0  0  4  0  0  0  0  0  0
    4.6240   50.6076   32.5510 C   0  0  0  0  0  0  0  0  0  0  0  0
    4.5996   49.3050   34.5853 C   0  0  0  0  0  0  0  0  0  0  0  0
    6.0913   51.3205   30.1740 O   0  0  0  0  0  1  0  0  0  0  0  0
    7.7819   51.7386   31.6137 O   0  0  0  0  0  0  0  0  0  0  0  0
    3.9205   50.0302   33.6085 C   0  0  0  0  0  0  0  0  0  0  0  0
    8.8089   40.1914   34.2081 O   0  0  0  0  0  0  0  0  0  0  0  0
   11.2386   40.7915   33.3693 O   0  0  0  0  0  0  0  0  0  0  0  0
   10.9187   40.6906   31.9960 C   0  0  0  0  0  0  0  0  0  0  0  0
   11.5175   39.3824   31.4412 C   0  0  0  0  0  0  0  0  0  0  0  0
   12.7494   39.0893   32.0756 O   0  0  0  0  0  0  0  0  0  0  0  0
   10.6036   38.1899   31.6660 C   0  0  0  0  0  0  0  0  0  0  0  0
   12.9401   37.6834   32.0276 C   0  0  0  0  0  0  0  0  0  0  0  0
    9.6376   38.0785   30.6474 O   0  0  0  0  0  0  0  0  0  0  0  0
   11.5803   37.0204   31.6937 C   0  0  0  0  0  0  0  0  0  0  0  0
   13.4902   37.2177   33.3237 N   0  0  0  0  0  0  0  0  0  0  0  0
   11.6118   36.3193   30.4680 O   0  0  0  0  0  0  0  0  0  0  0  0
   14.4759   36.3271   33.5731 C   0  0  0  0  0  0  0  0  0  0  0  0
   13.1176   37.6317   34.5688 C   0  0  0  0  0  0  0  0  0  0  0  0
   15.2064   35.6141   32.6742 N   0  0  0  0  0  0  0  0  0  0  0  0
   14.6729   36.2274   34.9184 C   0  0  0  0  0  0  0  0  0  0  0  0
   13.8221   37.0457   35.5783 N   0  0  0  0  0  0  0  0  0  0  0  0
   16.1637   34.7597   33.1549 C   0  0  0  0  0  0  0  0  0  0  0  0
   15.6514   35.3493   35.4133 C   0  0  0  0  0  0  0  0  0  0  0  0
   16.3791   34.6312   34.5044 N   0  0  0  0  0  0  0  0  0  0  0  0
   15.9001   35.1935   36.8091 N   0  0  0  0  0  0  0  0  0  0  0  0
    9.8199   44.9857   32.1460 H   0  0  0  0  0  0  0  0  0  0  0  0
   11.0779   46.3246   34.4882 H   0  0  0  0  0  0  0  0  0  0  0  0
   10.9422   46.8852   32.9019 H   0  0  0  0  0  0  0  0  0  0  0  0
    8.7588   45.7901   34.9516 H   0  0  0  0  0  0  0  0  0  0  0  0
    7.8250   44.9032   33.7034 H   0  0  0  0  0  0  0  0  0  0  0  0
    8.5497   49.4679   32.2688 H   0  0  0  0  0  0  0  0  0  0  0  0
    8.7236   50.2063   33.8999 H   0  0  0  0  0  0  0  0  0  0  0  0
    6.4841   48.5623   35.2658 H   0  0  0  0  0  0  0  0  0  0  0  0
    4.0819   51.1950   31.8207 H   0  0  0  0  0  0  0  0  0  0  0  0
    4.0538   48.8719   35.4136 H   0  0  0  0  0  0  0  0  0  0  0  0
    2.8481   50.1595   33.6794 H   0  0  0  0  0  0  0  0  0  0  0  0
    9.8307   40.7395   31.7563 H   0  0  0  0  0  0  0  0  0  0  0  0
   11.3992   41.5454   31.4738 H   0  0  0  0  0  0  0  0  0  0  0  0
   11.6989   39.5090   30.3489 H   0  0  0  0  0  0  0  0  0  0  0  0
   10.1130   38.2589   32.6664 H   0  0  0  0  0  0  0  0  0  0  0  0
   13.6800   37.4628   31.2265 H   0  0  0  0  0  0  0  0  0  0  0  0
    8.8952   38.6908   30.8892 H   0  0  0  0  0  0  0  0  0  0  0  0
   11.2830   36.3060   32.4929 H   0  0  0  0  0  0  0  0  0  0  0  0
   11.8859   36.9589   29.7593 H   0  0  0  0  0  0  0  0  0  0  0  0
   12.3360   38.3600   34.7442 H   0  0  0  0  0  0  0  0  0  0  0  0
   16.7572   34.1793   32.4621 H   0  0  0  0  0  0  0  0  0  0  0  0
   16.6362   34.5318   37.1416 H   0  0  0  0  0  0  0  0  0  0  0  0
   15.3528   35.7356   37.5140 H   0  0  0  0  0  0  0  0  0  0  0  0
  1  2  2  0
  1  3  1  0
  3  4  1  0
  4  5  1  0
  6  1  1  0
  7  6  1  0
  6  8  1  0
  8  9  1  0
  9 10  1  0
  9 11  2  0
 10 12  1  0
 12 13  1  0
 13 14  2  0
 15 13  1  0
 14 16  1  0
 14 17  1  0
 18 15  2  0
 16 19  1  0
 16 20  2  0
 17 21  2  0
 21 18  1  0
  4 22  2  0
  4 23  1  0
 24 23  1  0
 24 25  1  0
 25 26  1  0
 25 27  1  0
 26 28  1  0
 27 29  1  0
 27 30  1  0
 30 28  1  0
 28 31  1  0
 30 32  1  0
 33 31  1  0
 34 31  1  0
 35 33  2  0
 33 36  1  0
 37 34  2  0
 38 35  1  0
 36 39  2  0
 36 37  1  0
 40 38  2  0
 40 39  1  0
 39 41  1  0
  6 42  1  6
  7 43  1  0
  7 44  1  0
  8 45  1  0
  8 46  1  0
 12 47  1  0
 12 48  1  0
 15 49  1  0
 17 50  1  0
 18 51  1  0
 21 52  1  0
 24 53  1  0
 24 54  1  0
 25 55  1  0
 27 56  1  0
 28 57  1  0
 29 58  1  0
 30 59  1  0
 32 60  1  0
 34 61  1  0
 38 62  1  0
 41 63  1  0
 41 64  1  0
M  CHG  3   5  -1  16   1  19  -1
M  END
>  <EmbedRMS>  (421) 
0.0880377340512797

$$$$

     RDKit          3D

 64 67  0  0  0  0  0  0  0  0999 V2000
   10.2803   43.7754   33.8059 C   0  0  0  0  0  0  0  0  0  0  0  0
   11.4054   43.5915   34.3577 O   0  0  0  0  0  0  0  0  0  0  0  0
    9.3673   42.7299   33.6984 O   0  0  0  0  0  0  0  0  0  0  0  0
    9.8872   41.2341   34.2835 P   0  0  0  0  0  5  0  0  0  0  0  0
   10.3680   41.4706   35.8737 O   0  0  0  0  0  1  0  0  0  0  0  0
    9.9564   45.1144   33.2359 C   0  0  2  0  0  0  0  0  0  0  0  0
   11.0722   46.0268   33.4922 N   0  0  0  0  0  0  0  0  0  0  0  0
    8.6434   45.6817   33.8226 C   0  0  0  0  0  0  0  0  0  0  0  0
    7.4362   45.0835   33.1661 C   0  0  0  0  0  0  0  0  0  0  0  0
    6.8325   43.9529   33.7239 O   0  0  0  0  0  0  0  0  0  0  0  0
    6.9930   45.5874   32.0975 O   0  0  0  0  0  0  0  0  0  0  0  0
    5.6751   43.3438   33.1614 C   0  0  0  0  0  0  0  0  0  0  0  0
    5.3542   42.0816   33.9180 C   0  0  0  0  0  0  0  0  0  0  0  0
    4.6014   42.0891   35.1229 C   0  0  0  0  0  0  0  0  0  0  0  0
    5.8226   40.8576   33.4065 C   0  0  0  0  0  0  0  0  0  0  0  0
    4.1300   43.3129   35.7172 N   0  0  0  0  0  4  0  0  0  0  0  0
    4.3027   40.8643   35.7497 C   0  0  0  0  0  0  0  0  0  0  0  0
    5.5279   39.6560   34.0525 C   0  0  0  0  0  0  0  0  0  0  0  0
    4.9258   44.4352   35.7389 O   0  0  0  0  0  1  0  0  0  0  0  0
    3.0650   43.3215   36.3691 O   0  0  0  0  0  0  0  0  0  0  0  0
    4.7641   39.6587   35.2183 C   0  0  0  0  0  0  0  0  0  0  0  0
    8.8125   40.1889   34.2100 O   0  0  0  0  0  0  0  0  0  0  0  0
   11.2381   40.7917   33.3655 O   0  0  0  0  0  0  0  0  0  0  0  0
   10.9130   40.6845   31.9933 C   0  0  0  0  0  0  0  0  0  0  0  0
   11.5171   39.3775   31.4397 C   0  0  0  0  0  0  0  0  0  0  0  0
   12.7474   39.0870   32.0758 O   0  0  0  0  0  0  0  0  0  0  0  0
   10.6065   38.1855   31.6662 C   0  0  0  0  0  0  0  0  0  0  0  0
   12.9368   37.6811   32.0293 C   0  0  0  0  0  0  0  0  0  0  0  0
    9.6395   38.0886   30.6486 O   0  0  0  0  0  0  0  0  0  0  0  0
   11.5784   37.0136   31.7045 C   0  0  0  0  0  0  0  0  0  0  0  0
   13.4911   37.2181   33.3242 N   0  0  0  0  0  0  0  0  0  0  0  0
   11.6120   36.3397   30.4670 O   0  0  0  0  0  0  0  0  0  0  0  0
   14.4765   36.3273   33.5731 C   0  0  0  0  0  0  0  0  0  0  0  0
   13.1181   37.6314   34.5695 C   0  0  0  0  0  0  0  0  0  0  0  0
   15.2065   35.6142   32.6740 N   0  0  0  0  0  0  0  0  0  0  0  0
   14.6735   36.2272   34.9185 C   0  0  0  0  0  0  0  0  0  0  0  0
   13.8226   37.0451   35.5788 N   0  0  0  0  0  0  0  0  0  0  0  0
   16.1637   34.7595   33.1545 C   0  0  0  0  0  0  0  0  0  0  0  0
   15.6519   35.3490   35.4131 C   0  0  0  0  0  0  0  0  0  0  0  0
   16.3793   34.6309   34.5040 N   0  0  0  0  0  0  0  0  0  0  0  0
   15.9008   35.1928   36.8089 N   0  0  0  0  0  0  0  0  0  0  0  0
    9.8525   44.9986   32.1335 H   0  0  0  0  0  0  0  0  0  0  0  0
   10.9194   46.9044   32.9436 H   0  0  0  0  0  0  0  0  0  0  0  0
   11.0822   46.2914   34.5053 H   0  0  0  0  0  0  0  0  0  0  0  0
    8.5995   45.5048   34.9200 H   0  0  0  0  0  0  0  0  0  0  0  0
    8.6081   46.7824   33.6673 H   0  0  0  0  0  0  0  0  0  0  0  0
    5.8621   43.1116   32.0891 H   0  0  0  0  0  0  0  0  0  0  0  0
    4.8168   44.0481   33.1965 H   0  0  0  0  0  0  0  0  0  0  0  0
    6.4149   40.8315   32.4993 H   0  0  0  0  0  0  0  0  0  0  0  0
    3.7262   40.8444   36.6663 H   0  0  0  0  0  0  0  0  0  0  0  0
    5.8920   38.7205   33.6469 H   0  0  0  0  0  0  0  0  0  0  0  0
    4.5345   38.7250   35.7162 H   0  0  0  0  0  0  0  0  0  0  0  0
   11.3832   41.5415   31.4655 H   0  0  0  0  0  0  0  0  0  0  0  0
    9.8223   40.7184   31.7585 H   0  0  0  0  0  0  0  0  0  0  0  0
   11.7002   39.5018   30.3473 H   0  0  0  0  0  0  0  0  0  0  0  0
   10.1100   38.2759   32.6615 H   0  0  0  0  0  0  0  0  0  0  0  0
   13.6709   37.4590   31.2231 H   0  0  0  0  0  0  0  0  0  0  0  0
    9.0003   37.3867   30.9384 H   0  0  0  0  0  0  0  0  0  0  0  0
   11.2701   36.3046   32.5085 H   0  0  0  0  0  0  0  0  0  0  0  0
   12.1436   35.5142   30.6133 H   0  0  0  0  0  0  0  0  0  0  0  0
   12.3360   38.3589   34.7453 H   0  0  0  0  0  0  0  0  0  0  0  0
   16.7567   34.1787   32.4617 H   0  0  0  0  0  0  0  0  0  0  0  0
   16.6367   34.5308   37.1409 H   0  0  0  0  0  0  0  0  0  0  0  0
   15.3538   35.7347   37.5143 H   0  0  0  0  0  0  0  0  0  0  0  0
  1  2  2  0
  1  3  1  0
  3  4  1  0
  4  5  1  0
  6  1  1  0
  7  6  1  0
  6  8  1  0
  8  9  1  0
  9 10  1  0
  9 11  2  0
 10 12  1  0
 12 13  1  0
 13 14  2  0
 15 13  1  0
 14 16  1  0
 14 17  1  0
 18 15  2  0
 16 19  1  0
 16 20  2  0
 17 21  2  0
 21 18  1  0
  4 22  2  0
  4 23  1  0
 24 23  1  0
 24 25  1  0
 25 26  1  0
 25 27  1  0
 26 28  1  0
 27 29  1  0
 27 30  1  0
 30 28  1  0
 28 31  1  0
 30 32  1  0
 33 31  1  0
 34 31  1  0
 35 33  2  0
 33 36  1  0
 37 34  2  0
 38 35  1  0
 36 39  2  0
 36 37  1  0
 40 38  2  0
 40 39  1  0
 39 41  1  0
  6 42  1  6
  7 43  1  0
  7 44  1  0
  8 45  1  0
  8 46  1  0
 12 47  1  0
 12 48  1  0
 15 49  1  0
 17 50  1  0
 18 51  1  0
 21 52  1  0
 24 53  1  0
 24 54  1  0
 25 55  1  0
 27 56  1  0
 28 57  1  0
 29 58  1  0
 30 59  1  0
 32 60  1  0
 34 61  1  0
 38 62  1  0
 41 63  1  0
 41 64  1  0
M  CHG  3   5  -1  16   1  19  -1
M  END
>  <EmbedRMS>  (422) 
0.08835055543751849

$$$$

     RDKit          3D

 64 67  0  0  0  0  0  0  0  0999 V2000
   10.2804   43.7770   33.8115 C   0  0  0  0  0  0  0  0  0  0  0  0
   11.4061   43.5937   34.3618 O   0  0  0  0  0  0  0  0  0  0  0  0
    9.3684   42.7302   33.7044 O   0  0  0  0  0  0  0  0  0  0  0  0
    9.8880   41.2336   34.2848 P   0  0  0  0  0  5  0  0  0  0  0  0
   10.3690   41.4680   35.8751 O   0  0  0  0  0  1  0  0  0  0  0  0
    9.9606   45.1115   33.2267 C   0  0  2  0  0  0  0  0  0  0  0  0
   11.0690   46.0305   33.4909 N   0  0  0  0  0  0  0  0  0  0  0  0
    8.6337   45.6878   33.7764 C   0  0  0  0  0  0  0  0  0  0  0  0
    7.4326   44.8818   33.3715 C   0  0  0  0  0  0  0  0  0  0  0  0
    7.4143   44.2300   32.1349 O   0  0  0  0  0  0  0  0  0  0  0  0
    6.4376   44.8171   34.1437 O   0  0  0  0  0  0  0  0  0  0  0  0
    6.3895   43.3155   31.7560 C   0  0  0  0  0  0  0  0  0  0  0  0
    6.7710   42.5608   30.5020 C   0  0  0  0  0  0  0  0  0  0  0  0
    5.7864   41.9608   29.6727 C   0  0  0  0  0  0  0  0  0  0  0  0
    8.1319   42.4053   30.1672 C   0  0  0  0  0  0  0  0  0  0  0  0
    4.3869   42.0118   30.0031 N   0  0  0  0  0  4  0  0  0  0  0  0
    6.1887   41.2877   28.5043 C   0  0  0  0  0  0  0  0  0  0  0  0
    8.5101   41.7134   29.0165 C   0  0  0  0  0  0  0  0  0  0  0  0
    3.9690   41.8273   31.3008 O   0  0  0  0  0  1  0  0  0  0  0  0
    3.5303   42.0405   29.0952 O   0  0  0  0  0  0  0  0  0  0  0  0
    7.5403   41.1643   28.1813 C   0  0  0  0  0  0  0  0  0  0  0  0
    8.8092   40.1919   34.2087 O   0  0  0  0  0  0  0  0  0  0  0  0
   11.2384   40.7917   33.3652 O   0  0  0  0  0  0  0  0  0  0  0  0
   10.9104   40.6819   31.9941 C   0  0  0  0  0  0  0  0  0  0  0  0
   11.5161   39.3770   31.4393 C   0  0  0  0  0  0  0  0  0  0  0  0
   12.7467   39.0856   32.0740 O   0  0  0  0  0  0  0  0  0  0  0  0
   10.6046   38.1860   31.6660 C   0  0  0  0  0  0  0  0  0  0  0  0
   12.9344   37.6792   32.0280 C   0  0  0  0  0  0  0  0  0  0  0  0
    9.6379   38.0920   30.6475 O   0  0  0  0  0  0  0  0  0  0  0  0
   11.5762   37.0126   31.7050 C   0  0  0  0  0  0  0  0  0  0  0  0
   13.4908   37.2177   33.3232 N   0  0  0  0  0  0  0  0  0  0  0  0
   11.6237   36.3370   30.4677 O   0  0  0  0  0  0  0  0  0  0  0  0
   14.4764   36.3272   33.5726 C   0  0  0  0  0  0  0  0  0  0  0  0
   13.1181   37.6316   34.5684 C   0  0  0  0  0  0  0  0  0  0  0  0
   15.2066   35.6138   32.6738 N   0  0  0  0  0  0  0  0  0  0  0  0
   14.6735   36.2276   34.9181 C   0  0  0  0  0  0  0  0  0  0  0  0
   13.8226   37.0458   35.5780 N   0  0  0  0  0  0  0  0  0  0  0  0
   16.1638   34.7593   33.1547 C   0  0  0  0  0  0  0  0  0  0  0  0
   15.6516   35.3493   35.4130 C   0  0  0  0  0  0  0  0  0  0  0  0
   16.3792   34.6310   34.5042 N   0  0  0  0  0  0  0  0  0  0  0  0
   15.9002   35.1935   36.8089 N   0  0  0  0  0  0  0  0  0  0  0  0
    9.8769   44.9854   32.1246 H   0  0  0  0  0  0  0  0  0  0  0  0
   11.0739   46.2914   34.5048 H   0  0  0  0  0  0  0  0  0  0  0  0
   10.9112   46.9097   32.9463 H   0  0  0  0  0  0  0  0  0  0  0  0
    8.4941   46.7197   33.3894 H   0  0  0  0  0  0  0  0  0  0  0  0
    8.6845   45.7453   34.8863 H   0  0  0  0  0  0  0  0  0  0  0  0
    6.2302   42.5784   32.5728 H   0  0  0  0  0  0  0  0  0  0  0  0
    5.4547   43.8923   31.5901 H   0  0  0  0  0  0  0  0  0  0  0  0
    8.9103   42.8216   30.7931 H   0  0  0  0  0  0  0  0  0  0  0  0
    5.4525   40.8312   27.8548 H   0  0  0  0  0  0  0  0  0  0  0  0
    9.5591   41.6040   28.7721 H   0  0  0  0  0  0  0  0  0  0  0  0
    7.8365   40.6306   27.2875 H   0  0  0  0  0  0  0  0  0  0  0  0
   11.3705   41.5420   31.4625 H   0  0  0  0  0  0  0  0  0  0  0  0
    9.8192   40.7020   31.7667 H   0  0  0  0  0  0  0  0  0  0  0  0
   11.6978   39.5026   30.3467 H   0  0  0  0  0  0  0  0  0  0  0  0
   10.1091   38.2756   32.6619 H   0  0  0  0  0  0  0  0  0  0  0  0
   13.6673   37.4551   31.2212 H   0  0  0  0  0  0  0  0  0  0  0  0
    8.9748   37.4199   30.9534 H   0  0  0  0  0  0  0  0  0  0  0  0
   11.2861   36.3037   32.5168 H   0  0  0  0  0  0  0  0  0  0  0  0
   10.8681   35.6931   30.4640 H   0  0  0  0  0  0  0  0  0  0  0  0
   12.3355   38.3587   34.7438 H   0  0  0  0  0  0  0  0  0  0  0  0
   16.7572   34.1787   32.4620 H   0  0  0  0  0  0  0  0  0  0  0  0
   15.3529   35.7358   37.5137 H   0  0  0  0  0  0  0  0  0  0  0  0
   16.6360   34.5316   37.1415 H   0  0  0  0  0  0  0  0  0  0  0  0
  1  2  2  0
  1  3  1  0
  3  4  1  0
  4  5  1  0
  6  1  1  0
  7  6  1  0
  6  8  1  0
  8  9  1  0
  9 10  1  0
  9 11  2  0
 10 12  1  0
 12 13  1  0
 13 14  2  0
 15 13  1  0
 14 16  1  0
 14 17  1  0
 18 15  2  0
 16 19  1  0
 16 20  2  0
 17 21  2  0
 21 18  1  0
  4 22  2  0
  4 23  1  0
 24 23  1  0
 24 25  1  0
 25 26  1  0
 25 27  1  0
 26 28  1  0
 27 29  1  0
 27 30  1  0
 30 28  1  0
 28 31  1  0
 30 32  1  0
 33 31  1  0
 34 31  1  0
 35 33  2  0
 33 36  1  0
 37 34  2  0
 38 35  1  0
 36 39  2  0
 36 37  1  0
 40 38  2  0
 40 39  1  0
 39 41  1  0
  6 42  1  6
  7 43  1  0
  7 44  1  0
  8 45  1  0
  8 46  1  0
 12 47  1  0
 12 48  1  0
 15 49  1  0
 17 50  1  0
 18 51  1  0
 21 52  1  0
 24 53  1  0
 24 54  1  0
 25 55  1  0
 27 56  1  0
 28 57  1  0
 29 58  1  0
 30 59  1  0
 32 60  1  0
 34 61  1  0
 38 62  1  0
 41 63  1  0
 41 64  1  0
M  CHG  3   5  -1  16   1  19  -1
M  END
>  <EmbedRMS>  (423) 
0.08907368278861351

$$$$

     RDKit          3D

 64 67  0  0  0  0  0  0  0  0999 V2000
   10.2863   43.7710   33.8098 C   0  0  0  0  0  0  0  0  0  0  0  0
   11.4101   43.5817   34.3615 O   0  0  0  0  0  0  0  0  0  0  0  0
    9.3669   42.7308   33.7020 O   0  0  0  0  0  0  0  0  0  0  0  0
    9.8847   41.2330   34.2845 P   0  0  0  0  0  5  0  0  0  0  0  0
   10.3648   41.4677   35.8752 O   0  0  0  0  0  1  0  0  0  0  0  0
    9.9606   45.1125   33.2476 C   0  0  2  0  0  0  0  0  0  0  0  0
   11.0655   46.0480   33.4747 N   0  0  0  0  0  0  0  0  0  0  0  0
    8.6652   45.6566   33.8728 C   0  0  0  0  0  0  0  0  0  0  0  0
    8.2780   46.9657   33.2587 C   0  0  0  0  0  0  0  0  0  0  0  0
    8.7053   48.1583   33.8539 O   0  0  0  0  0  0  0  0  0  0  0  0
    7.6022   46.9826   32.1937 O   0  0  0  0  0  0  0  0  0  0  0  0
    8.3808   49.4487   33.3367 C   0  0  0  0  0  0  0  0  0  0  0  0
    6.9146   49.7766   33.5301 C   0  0  0  0  0  0  0  0  0  0  0  0
    6.2050   50.5979   32.6135 C   0  0  0  0  0  0  0  0  0  0  0  0
    6.2410   49.2775   34.6623 C   0  0  0  0  0  0  0  0  0  0  0  0
    6.8566   51.2311   31.4993 N   0  0  0  0  0  4  0  0  0  0  0  0
    4.8293   50.8135   32.8064 C   0  0  0  0  0  0  0  0  0  0  0  0
    4.8792   49.5204   34.8462 C   0  0  0  0  0  0  0  0  0  0  0  0
    6.1635   51.4434   30.3297 O   0  0  0  0  0  1  0  0  0  0  0  0
    7.9685   51.7789   31.6469 O   0  0  0  0  0  0  0  0  0  0  0  0
    4.1720   50.2761   33.9136 C   0  0  0  0  0  0  0  0  0  0  0  0
    8.8073   40.1902   34.2075 O   0  0  0  0  0  0  0  0  0  0  0  0
   11.2377   40.7903   33.3696 O   0  0  0  0  0  0  0  0  0  0  0  0
   10.9187   40.6904   31.9961 C   0  0  0  0  0  0  0  0  0  0  0  0
   11.5174   39.3823   31.4411 C   0  0  0  0  0  0  0  0  0  0  0  0
   12.7494   39.0893   32.0756 O   0  0  0  0  0  0  0  0  0  0  0  0
   10.6036   38.1899   31.6659 C   0  0  0  0  0  0  0  0  0  0  0  0
   12.9401   37.6833   32.0276 C   0  0  0  0  0  0  0  0  0  0  0  0
    9.6376   38.0784   30.6474 O   0  0  0  0  0  0  0  0  0  0  0  0
   11.5804   37.0203   31.6937 C   0  0  0  0  0  0  0  0  0  0  0  0
   13.4902   37.2177   33.3237 N   0  0  0  0  0  0  0  0  0  0  0  0
   11.6118   36.3193   30.4680 O   0  0  0  0  0  0  0  0  0  0  0  0
   14.4759   36.3271   33.5731 C   0  0  0  0  0  0  0  0  0  0  0  0
   13.1176   37.6317   34.5688 C   0  0  0  0  0  0  0  0  0  0  0  0
   15.2064   35.6141   32.6742 N   0  0  0  0  0  0  0  0  0  0  0  0
   14.6729   36.2274   34.9184 C   0  0  0  0  0  0  0  0  0  0  0  0
   13.8221   37.0457   35.5783 N   0  0  0  0  0  0  0  0  0  0  0  0
   16.1637   34.7597   33.1549 C   0  0  0  0  0  0  0  0  0  0  0  0
   15.6514   35.3493   35.4133 C   0  0  0  0  0  0  0  0  0  0  0  0
   16.3791   34.6312   34.5044 N   0  0  0  0  0  0  0  0  0  0  0  0
   15.9001   35.1935   36.8091 N   0  0  0  0  0  0  0  0  0  0  0  0
    9.8088   44.9958   32.1515 H   0  0  0  0  0  0  0  0  0  0  0  0
   11.9219   45.7019   32.9826 H   0  0  0  0  0  0  0  0  0  0  0  0
   11.2753   46.1188   34.4981 H   0  0  0  0  0  0  0  0  0  0  0  0
    7.8355   44.9322   33.7187 H   0  0  0  0  0  0  0  0  0  0  0  0
    8.7976   45.7911   34.9689 H   0  0  0  0  0  0  0  0  0  0  0  0
    8.9865   50.2088   33.8726 H   0  0  0  0  0  0  0  0  0  0  0  0
    8.6633   49.4736   32.2629 H   0  0  0  0  0  0  0  0  0  0  0  0
    6.7661   48.6848   35.4009 H   0  0  0  0  0  0  0  0  0  0  0  0
    4.2687   51.4256   32.1113 H   0  0  0  0  0  0  0  0  0  0  0  0
    4.3706   49.1183   35.7129 H   0  0  0  0  0  0  0  0  0  0  0  0
    3.1151   50.4601   34.0571 H   0  0  0  0  0  0  0  0  0  0  0  0
    9.8308   40.7397   31.7558 H   0  0  0  0  0  0  0  0  0  0  0  0
   11.3998   41.5454   31.4747 H   0  0  0  0  0  0  0  0  0  0  0  0
   11.6989   39.5091   30.3489 H   0  0  0  0  0  0  0  0  0  0  0  0
   10.1130   38.2588   32.6664 H   0  0  0  0  0  0  0  0  0  0  0  0
   13.6800   37.4627   31.2265 H   0  0  0  0  0  0  0  0  0  0  0  0
    8.8952   38.6907   30.8891 H   0  0  0  0  0  0  0  0  0  0  0  0
   11.2831   36.3060   32.4929 H   0  0  0  0  0  0  0  0  0  0  0  0
   11.8859   36.9589   29.7593 H   0  0  0  0  0  0  0  0  0  0  0  0
   12.3360   38.3600   34.7441 H   0  0  0  0  0  0  0  0  0  0  0  0
   16.7572   34.1793   32.4621 H   0  0  0  0  0  0  0  0  0  0  0  0
   15.3528   35.7357   37.5140 H   0  0  0  0  0  0  0  0  0  0  0  0
   16.6362   34.5318   37.1416 H   0  0  0  0  0  0  0  0  0  0  0  0
  1  2  2  0
  1  3  1  0
  3  4  1  0
  4  5  1  0
  6  1  1  0
  7  6  1  0
  6  8  1  0
  8  9  1  0
  9 10  1  0
  9 11  2  0
 10 12  1  0
 12 13  1  0
 13 14  2  0
 15 13  1  0
 14 16  1  0
 14 17  1  0
 18 15  2  0
 16 19  1  0
 16 20  2  0
 17 21  2  0
 21 18  1  0
  4 22  2  0
  4 23  1  0
 24 23  1  0
 24 25  1  0
 25 26  1  0
 25 27  1  0
 26 28  1  0
 27 29  1  0
 27 30  1  0
 30 28  1  0
 28 31  1  0
 30 32  1  0
 33 31  1  0
 34 31  1  0
 35 33  2  0
 33 36  1  0
 37 34  2  0
 38 35  1  0
 36 39  2  0
 36 37  1  0
 40 38  2  0
 40 39  1  0
 39 41  1  0
  6 42  1  6
  7 43  1  0
  7 44  1  0
  8 45  1  0
  8 46  1  0
 12 47  1  0
 12 48  1  0
 15 49  1  0
 17 50  1  0
 18 51  1  0
 21 52  1  0
 24 53  1  0
 24 54  1  0
 25 55  1  0
 27 56  1  0
 28 57  1  0
 29 58  1  0
 30 59  1  0
 32 60  1  0
 34 61  1  0
 38 62  1  0
 41 63  1  0
 41 64  1  0
M  CHG  3   5  -1  16   1  19  -1
M  END
>  <EmbedRMS>  (424) 
0.0888425448434776

$$$$

     RDKit          3D

 64 67  0  0  0  0  0  0  0  0999 V2000
   10.2864   43.7709   33.8097 C   0  0  0  0  0  0  0  0  0  0  0  0
   11.4101   43.5818   34.3616 O   0  0  0  0  0  0  0  0  0  0  0  0
    9.3672   42.7306   33.7015 O   0  0  0  0  0  0  0  0  0  0  0  0
    9.8851   41.2327   34.2837 P   0  0  0  0  0  5  0  0  0  0  0  0
   10.3652   41.4675   35.8745 O   0  0  0  0  0  1  0  0  0  0  0  0
    9.9606   45.1125   33.2475 C   0  0  2  0  0  0  0  0  0  0  0  0
   11.0655   46.0480   33.4748 N   0  0  0  0  0  0  0  0  0  0  0  0
    8.6651   45.6564   33.8726 C   0  0  0  0  0  0  0  0  0  0  0  0
    8.2768   46.9647   33.2572 C   0  0  0  0  0  0  0  0  0  0  0  0
    8.7224   48.1562   33.8398 O   0  0  0  0  0  0  0  0  0  0  0  0
    7.5927   46.9789   32.1980 O   0  0  0  0  0  0  0  0  0  0  0  0
    8.3717   49.4511   33.3556 C   0  0  0  0  0  0  0  0  0  0  0  0
    6.9380   49.7792   33.7002 C   0  0  0  0  0  0  0  0  0  0  0  0
    6.5474   50.2082   34.9989 C   0  0  0  0  0  0  0  0  0  0  0  0
    5.9637   49.6711   32.6909 C   0  0  0  0  0  0  0  0  0  0  0  0
    7.4885   50.3340   36.0816 N   0  0  0  0  0  4  0  0  0  0  0  0
    5.2009   50.5428   35.2309 C   0  0  0  0  0  0  0  0  0  0  0  0
    4.6311   49.9932   32.9485 C   0  0  0  0  0  0  0  0  0  0  0  0
    7.2688   51.2579   37.0775 O   0  0  0  0  0  1  0  0  0  0  0  0
    8.4143   49.5099   36.2247 O   0  0  0  0  0  0  0  0  0  0  0  0
    4.2511   50.4318   34.2148 C   0  0  0  0  0  0  0  0  0  0  0  0
    8.8075   40.1901   34.2072 O   0  0  0  0  0  0  0  0  0  0  0  0
   11.2381   40.7896   33.3686 O   0  0  0  0  0  0  0  0  0  0  0  0
   10.9194   40.6894   31.9948 C   0  0  0  0  0  0  0  0  0  0  0  0
   11.5171   39.3800   31.4396 C   0  0  0  0  0  0  0  0  0  0  0  0
   12.7479   39.0861   32.0733 O   0  0  0  0  0  0  0  0  0  0  0  0
   10.6031   38.1891   31.6666 C   0  0  0  0  0  0  0  0  0  0  0  0
   12.9335   37.6796   32.0279 C   0  0  0  0  0  0  0  0  0  0  0  0
    9.6397   38.0776   30.6456 O   0  0  0  0  0  0  0  0  0  0  0  0
   11.5739   37.0153   31.7057 C   0  0  0  0  0  0  0  0  0  0  0  0
   13.4903   37.2178   33.3231 N   0  0  0  0  0  0  0  0  0  0  0  0
   11.6211   36.3376   30.4694 O   0  0  0  0  0  0  0  0  0  0  0  0
   14.4761   36.3273   33.5725 C   0  0  0  0  0  0  0  0  0  0  0  0
   13.1179   37.6316   34.5684 C   0  0  0  0  0  0  0  0  0  0  0  0
   15.2063   35.6139   32.6737 N   0  0  0  0  0  0  0  0  0  0  0  0
   14.6733   36.2277   34.9180 C   0  0  0  0  0  0  0  0  0  0  0  0
   13.8225   37.0459   35.5779 N   0  0  0  0  0  0  0  0  0  0  0  0
   16.1636   34.7594   33.1546 C   0  0  0  0  0  0  0  0  0  0  0  0
   15.6515   35.3494   35.4129 C   0  0  0  0  0  0  0  0  0  0  0  0
   16.3791   34.6311   34.5041 N   0  0  0  0  0  0  0  0  0  0  0  0
   15.9001   35.1935   36.8088 N   0  0  0  0  0  0  0  0  0  0  0  0
    9.8090   44.9957   32.1514 H   0  0  0  0  0  0  0  0  0  0  0  0
   11.9220   45.7018   32.9830 H   0  0  0  0  0  0  0  0  0  0  0  0
   11.2749   46.1190   34.4982 H   0  0  0  0  0  0  0  0  0  0  0  0
    8.7979   45.7924   34.9684 H   0  0  0  0  0  0  0  0  0  0  0  0
    7.8358   44.9311   33.7198 H   0  0  0  0  0  0  0  0  0  0  0  0
    9.0459   50.2045   33.8140 H   0  0  0  0  0  0  0  0  0  0  0  0
    8.5494   49.5040   32.2587 H   0  0  0  0  0  0  0  0  0  0  0  0
    6.2372   49.3455   31.6948 H   0  0  0  0  0  0  0  0  0  0  0  0
    4.8802   50.8761   36.2097 H   0  0  0  0  0  0  0  0  0  0  0  0
    3.8923   49.9079   32.1621 H   0  0  0  0  0  0  0  0  0  0  0  0
    3.2171   50.6847   34.4111 H   0  0  0  0  0  0  0  0  0  0  0  0
    9.8316   40.7398   31.7544 H   0  0  0  0  0  0  0  0  0  0  0  0
   11.4014   41.5436   31.4731 H   0  0  0  0  0  0  0  0  0  0  0  0
   11.6982   39.5042   30.3470 H   0  0  0  0  0  0  0  0  0  0  0  0
   10.1090   38.2631   32.6649 H   0  0  0  0  0  0  0  0  0  0  0  0
   13.6656   37.4540   31.2207 H   0  0  0  0  0  0  0  0  0  0  0  0
    8.8965   38.6899   30.8852 H   0  0  0  0  0  0  0  0  0  0  0  0
   11.2846   36.3059   32.5175 H   0  0  0  0  0  0  0  0  0  0  0  0
   10.8524   35.7094   30.4589 H   0  0  0  0  0  0  0  0  0  0  0  0
   12.3353   38.3588   34.7439 H   0  0  0  0  0  0  0  0  0  0  0  0
   16.7570   34.1788   32.4619 H   0  0  0  0  0  0  0  0  0  0  0  0
   16.6360   34.5317   37.1413 H   0  0  0  0  0  0  0  0  0  0  0  0
   15.3529   35.7359   37.5136 H   0  0  0  0  0  0  0  0  0  0  0  0
  1  2  2  0
  1  3  1  0
  3  4  1  0
  4  5  1  0
  6  1  1  0
  7  6  1  0
  6  8  1  0
  8  9  1  0
  9 10  1  0
  9 11  2  0
 10 12  1  0
 12 13  1  0
 13 14  2  0
 15 13  1  0
 14 16  1  0
 14 17  1  0
 18 15  2  0
 16 19  1  0
 16 20  2  0
 17 21  2  0
 21 18  1  0
  4 22  2  0
  4 23  1  0
 24 23  1  0
 24 25  1  0
 25 26  1  0
 25 27  1  0
 26 28  1  0
 27 29  1  0
 27 30  1  0
 30 28  1  0
 28 31  1  0
 30 32  1  0
 33 31  1  0
 34 31  1  0
 35 33  2  0
 33 36  1  0
 37 34  2  0
 38 35  1  0
 36 39  2  0
 36 37  1  0
 40 38  2  0
 40 39  1  0
 39 41  1  0
  6 42  1  6
  7 43  1  0
  7 44  1  0
  8 45  1  0
  8 46  1  0
 12 47  1  0
 12 48  1  0
 15 49  1  0
 17 50  1  0
 18 51  1  0
 21 52  1  0
 24 53  1  0
 24 54  1  0
 25 55  1  0
 27 56  1  0
 28 57  1  0
 29 58  1  0
 30 59  1  0
 32 60  1  0
 34 61  1  0
 38 62  1  0
 41 63  1  0
 41 64  1  0
M  CHG  3   5  -1  16   1  19  -1
M  END
>  <EmbedRMS>  (425) 
0.08996444742424886

$$$$

     RDKit          3D

 64 67  0  0  0  0  0  0  0  0999 V2000
   10.2829   43.7723   33.8126 C   0  0  0  0  0  0  0  0  0  0  0  0
   11.4071   43.5830   34.3637 O   0  0  0  0  0  0  0  0  0  0  0  0
    9.3685   42.7291   33.6992 O   0  0  0  0  0  0  0  0  0  0  0  0
    9.8852   41.2325   34.2843 P   0  0  0  0  0  5  0  0  0  0  0  0
   10.3651   41.4685   35.8749 O   0  0  0  0  0  1  0  0  0  0  0  0
    9.9561   45.1185   33.2538 C   0  0  2  0  0  0  0  0  0  0  0  0
   11.0713   46.0432   33.4679 N   0  0  0  0  0  0  0  0  0  0  0  0
    8.6825   45.7070   33.8937 C   0  0  0  0  0  0  0  0  0  0  0  0
    7.4266   45.0392   33.3937 C   0  0  0  0  0  0  0  0  0  0  0  0
    6.8384   45.3537   32.1598 O   0  0  0  0  0  0  0  0  0  0  0  0
    6.8994   44.1362   34.0953 O   0  0  0  0  0  0  0  0  0  0  0  0
    7.1835   46.4742   31.3439 C   0  0  0  0  0  0  0  0  0  0  0  0
    6.6644   47.7626   31.9412 C   0  0  0  0  0  0  0  0  0  0  0  0
    5.3116   47.9199   32.3502 C   0  0  0  0  0  0  0  0  0  0  0  0
    7.5604   48.8347   32.1096 C   0  0  0  0  0  0  0  0  0  0  0  0
    4.3305   46.8840   32.1617 N   0  0  0  0  0  4  0  0  0  0  0  0
    4.9181   49.1219   32.9648 C   0  0  0  0  0  0  0  0  0  0  0  0
    7.1439   50.0250   32.7064 C   0  0  0  0  0  0  0  0  0  0  0  0
    3.2778   46.7674   33.0402 O   0  0  0  0  0  1  0  0  0  0  0  0
    4.3192   46.1993   31.1185 O   0  0  0  0  0  0  0  0  0  0  0  0
    5.8275   50.1656   33.1399 C   0  0  0  0  0  0  0  0  0  0  0  0
    8.8073   40.1902   34.2080 O   0  0  0  0  0  0  0  0  0  0  0  0
   11.2371   40.7893   33.3689 O   0  0  0  0  0  0  0  0  0  0  0  0
   10.9158   40.6896   31.9959 C   0  0  0  0  0  0  0  0  0  0  0  0
   11.5271   39.3897   31.4371 C   0  0  0  0  0  0  0  0  0  0  0  0
   12.7509   39.0915   32.0836 O   0  0  0  0  0  0  0  0  0  0  0  0
   10.6122   38.1915   31.6451 C   0  0  0  0  0  0  0  0  0  0  0  0
   12.9429   37.6851   32.0294 C   0  0  0  0  0  0  0  0  0  0  0  0
    9.6069   38.0858   30.6602 O   0  0  0  0  0  0  0  0  0  0  0  0
   11.5845   37.0185   31.6879 C   0  0  0  0  0  0  0  0  0  0  0  0
   13.4899   37.2163   33.3249 N   0  0  0  0  0  0  0  0  0  0  0  0
   11.6201   36.3062   30.4692 O   0  0  0  0  0  0  0  0  0  0  0  0
   14.4759   36.3263   33.5738 C   0  0  0  0  0  0  0  0  0  0  0  0
   13.1175   37.6307   34.5698 C   0  0  0  0  0  0  0  0  0  0  0  0
   15.2065   35.6139   32.6746 N   0  0  0  0  0  0  0  0  0  0  0  0
   14.6731   36.2267   34.9190 C   0  0  0  0  0  0  0  0  0  0  0  0
   13.8224   37.0450   35.5792 N   0  0  0  0  0  0  0  0  0  0  0  0
   16.1640   34.7596   33.1551 C   0  0  0  0  0  0  0  0  0  0  0  0
   15.6517   35.3489   35.4136 C   0  0  0  0  0  0  0  0  0  0  0  0
   16.3795   34.6310   34.5046 N   0  0  0  0  0  0  0  0  0  0  0  0
   15.9006   35.1931   36.8094 N   0  0  0  0  0  0  0  0  0  0  0  0
    9.8038   45.0068   32.1586 H   0  0  0  0  0  0  0  0  0  0  0  0
   11.2897   46.1166   34.4893 H   0  0  0  0  0  0  0  0  0  0  0  0
   11.9208   45.6882   32.9700 H   0  0  0  0  0  0  0  0  0  0  0  0
    8.7403   45.6112   35.0008 H   0  0  0  0  0  0  0  0  0  0  0  0
    8.6268   46.7931   33.6817 H   0  0  0  0  0  0  0  0  0  0  0  0
    8.2821   46.5045   31.1872 H   0  0  0  0  0  0  0  0  0  0  0  0
    6.7327   46.3399   30.3392 H   0  0  0  0  0  0  0  0  0  0  0  0
    8.5925   48.7445   31.7937 H   0  0  0  0  0  0  0  0  0  0  0  0
    3.8954   49.2603   33.2918 H   0  0  0  0  0  0  0  0  0  0  0  0
    7.8459   50.8382   32.8385 H   0  0  0  0  0  0  0  0  0  0  0  0
    5.5080   51.0887   33.6062 H   0  0  0  0  0  0  0  0  0  0  0  0
    9.8257   40.7193   31.7583 H   0  0  0  0  0  0  0  0  0  0  0  0
   11.3832   41.5525   31.4750 H   0  0  0  0  0  0  0  0  0  0  0  0
   11.7318   39.5337   30.3517 H   0  0  0  0  0  0  0  0  0  0  0  0
   10.1215   38.2683   32.6412 H   0  0  0  0  0  0  0  0  0  0  0  0
   13.6882   37.4705   31.2318 H   0  0  0  0  0  0  0  0  0  0  0  0
   10.0256   38.1750   29.7655 H   0  0  0  0  0  0  0  0  0  0  0  0
   11.2795   36.3123   32.4915 H   0  0  0  0  0  0  0  0  0  0  0  0
   11.9871   36.9099   29.7714 H   0  0  0  0  0  0  0  0  0  0  0  0
   12.3365   38.3595   34.7453 H   0  0  0  0  0  0  0  0  0  0  0  0
   16.7577   34.1794   32.4622 H   0  0  0  0  0  0  0  0  0  0  0  0
   15.3532   35.7351   37.5144 H   0  0  0  0  0  0  0  0  0  0  0  0
   16.6368   34.5316   37.1418 H   0  0  0  0  0  0  0  0  0  0  0  0
  1  2  2  0
  1  3  1  0
  3  4  1  0
  4  5  1  0
  6  1  1  0
  7  6  1  0
  6  8  1  0
  8  9  1  0
  9 10  1  0
  9 11  2  0
 10 12  1  0
 12 13  1  0
 13 14  2  0
 15 13  1  0
 14 16  1  0
 14 17  1  0
 18 15  2  0
 16 19  1  0
 16 20  2  0
 17 21  2  0
 21 18  1  0
  4 22  2  0
  4 23  1  0
 24 23  1  0
 24 25  1  0
 25 26  1  0
 25 27  1  0
 26 28  1  0
 27 29  1  0
 27 30  1  0
 30 28  1  0
 28 31  1  0
 30 32  1  0
 33 31  1  0
 34 31  1  0
 35 33  2  0
 33 36  1  0
 37 34  2  0
 38 35  1  0
 36 39  2  0
 36 37  1  0
 40 38  2  0
 40 39  1  0
 39 41  1  0
  6 42  1  6
  7 43  1  0
  7 44  1  0
  8 45  1  0
  8 46  1  0
 12 47  1  0
 12 48  1  0
 15 49  1  0
 17 50  1  0
 18 51  1  0
 21 52  1  0
 24 53  1  0
 24 54  1  0
 25 55  1  0
 27 56  1  0
 28 57  1  0
 29 58  1  0
 30 59  1  0
 32 60  1  0
 34 61  1  0
 38 62  1  0
 41 63  1  0
 41 64  1  0
M  CHG  3   5  -1  16   1  19  -1
M  END
>  <EmbedRMS>  (426) 
0.08772182315090059

$$$$

     RDKit          3D

 64 67  0  0  0  0  0  0  0  0999 V2000
   10.2876   43.7682   33.8075 C   0  0  0  0  0  0  0  0  0  0  0  0
   11.4138   43.5765   34.3531 O   0  0  0  0  0  0  0  0  0  0  0  0
    9.3653   42.7309   33.7032 O   0  0  0  0  0  0  0  0  0  0  0  0
    9.8834   41.2333   34.2858 P   0  0  0  0  0  5  0  0  0  0  0  0
   10.3649   41.4693   35.8760 O   0  0  0  0  0  1  0  0  0  0  0  0
    9.9681   45.1093   33.2395 C   0  0  2  0  0  0  0  0  0  0  0  0
   11.0579   46.0567   33.4864 N   0  0  0  0  0  0  0  0  0  0  0  0
    8.6300   45.6644   33.7662 C   0  0  0  0  0  0  0  0  0  0  0  0
    8.5593   45.7268   35.2645 C   0  0  0  0  0  0  0  0  0  0  0  0
    9.1730   46.7866   35.9435 O   0  0  0  0  0  0  0  0  0  0  0  0
    7.9635   44.8142   35.9000 O   0  0  0  0  0  0  0  0  0  0  0  0
    9.0837   46.9795   37.3568 C   0  0  0  0  0  0  0  0  0  0  0  0
   10.2284   46.3325   38.1149 C   0  0  0  0  0  0  0  0  0  0  0  0
   10.6051   46.7996   39.4051 C   0  0  0  0  0  0  0  0  0  0  0  0
   10.9281   45.2418   37.5594 C   0  0  0  0  0  0  0  0  0  0  0  0
    9.8866   47.8522   40.0732 N   0  0  0  0  0  4  0  0  0  0  0  0
   11.7086   46.2182   40.0541 C   0  0  0  0  0  0  0  0  0  0  0  0
   12.0079   44.6667   38.2297 C   0  0  0  0  0  0  0  0  0  0  0  0
   10.5492   48.6956   40.9353 O   0  0  0  0  0  1  0  0  0  0  0  0
    8.6398   47.8946   40.0326 O   0  0  0  0  0  0  0  0  0  0  0  0
   12.4044   45.1607   39.4694 C   0  0  0  0  0  0  0  0  0  0  0  0
    8.8062   40.1903   34.2096 O   0  0  0  0  0  0  0  0  0  0  0  0
   11.2356   40.7901   33.3698 O   0  0  0  0  0  0  0  0  0  0  0  0
   10.9147   40.6898   31.9966 C   0  0  0  0  0  0  0  0  0  0  0  0
   11.5266   39.3900   31.4377 C   0  0  0  0  0  0  0  0  0  0  0  0
   12.7505   39.0918   32.0841 O   0  0  0  0  0  0  0  0  0  0  0  0
   10.6121   38.1916   31.6453 C   0  0  0  0  0  0  0  0  0  0  0  0
   12.9428   37.6855   32.0296 C   0  0  0  0  0  0  0  0  0  0  0  0
    9.6070   38.0858   30.6602 O   0  0  0  0  0  0  0  0  0  0  0  0
   11.5845   37.0187   31.6880 C   0  0  0  0  0  0  0  0  0  0  0  0
   13.4899   37.2164   33.3250 N   0  0  0  0  0  0  0  0  0  0  0  0
   11.6202   36.3063   30.4693 O   0  0  0  0  0  0  0  0  0  0  0  0
   14.4758   36.3264   33.5738 C   0  0  0  0  0  0  0  0  0  0  0  0
   13.1176   37.6308   34.5699 C   0  0  0  0  0  0  0  0  0  0  0  0
   15.2065   35.6139   32.6746 N   0  0  0  0  0  0  0  0  0  0  0  0
   14.6731   36.2267   34.9191 C   0  0  0  0  0  0  0  0  0  0  0  0
   13.8224   37.0450   35.5792 N   0  0  0  0  0  0  0  0  0  0  0  0
   16.1640   34.7596   33.1551 C   0  0  0  0  0  0  0  0  0  0  0  0
   15.6517   35.3489   35.4136 C   0  0  0  0  0  0  0  0  0  0  0  0
   16.3795   34.6310   34.5045 N   0  0  0  0  0  0  0  0  0  0  0  0
   15.9006   35.1931   36.8094 N   0  0  0  0  0  0  0  0  0  0  0  0
    9.8634   44.9864   32.1389 H   0  0  0  0  0  0  0  0  0  0  0  0
   11.2833   46.1002   34.5068 H   0  0  0  0  0  0  0  0  0  0  0  0
   11.9152   45.7347   32.9798 H   0  0  0  0  0  0  0  0  0  0  0  0
    8.4721   46.6857   33.3575 H   0  0  0  0  0  0  0  0  0  0  0  0
    7.7970   45.0324   33.3866 H   0  0  0  0  0  0  0  0  0  0  0  0
    9.1136   48.0756   37.5292 H   0  0  0  0  0  0  0  0  0  0  0  0
    8.1119   46.6032   37.7432 H   0  0  0  0  0  0  0  0  0  0  0  0
   10.6535   44.8295   36.6025 H   0  0  0  0  0  0  0  0  0  0  0  0
   12.0164   46.5689   41.0310 H   0  0  0  0  0  0  0  0  0  0  0  0
   12.5403   43.8363   37.7837 H   0  0  0  0  0  0  0  0  0  0  0  0
   13.2447   44.7145   39.9855 H   0  0  0  0  0  0  0  0  0  0  0  0
   11.3817   41.5529   31.4757 H   0  0  0  0  0  0  0  0  0  0  0  0
    9.8247   40.7190   31.7593 H   0  0  0  0  0  0  0  0  0  0  0  0
   11.7314   39.5343   30.3524 H   0  0  0  0  0  0  0  0  0  0  0  0
   10.1212   38.2680   32.6413 H   0  0  0  0  0  0  0  0  0  0  0  0
   13.6881   37.4712   31.2319 H   0  0  0  0  0  0  0  0  0  0  0  0
   10.0257   38.1752   29.7656 H   0  0  0  0  0  0  0  0  0  0  0  0
   11.2796   36.3124   32.4915 H   0  0  0  0  0  0  0  0  0  0  0  0
   11.9872   36.9100   29.7715 H   0  0  0  0  0  0  0  0  0  0  0  0
   12.3366   38.3597   34.7454 H   0  0  0  0  0  0  0  0  0  0  0  0
   16.7576   34.1795   32.4622 H   0  0  0  0  0  0  0  0  0  0  0  0
   15.3532   35.7351   37.5143 H   0  0  0  0  0  0  0  0  0  0  0  0
   16.6368   34.5316   37.1418 H   0  0  0  0  0  0  0  0  0  0  0  0
  1  2  2  0
  1  3  1  0
  3  4  1  0
  4  5  1  0
  6  1  1  0
  7  6  1  0
  6  8  1  0
  8  9  1  0
  9 10  1  0
  9 11  2  0
 10 12  1  0
 12 13  1  0
 13 14  2  0
 15 13  1  0
 14 16  1  0
 14 17  1  0
 18 15  2  0
 16 19  1  0
 16 20  2  0
 17 21  2  0
 21 18  1  0
  4 22  2  0
  4 23  1  0
 24 23  1  0
 24 25  1  0
 25 26  1  0
 25 27  1  0
 26 28  1  0
 27 29  1  0
 27 30  1  0
 30 28  1  0
 28 31  1  0
 30 32  1  0
 33 31  1  0
 34 31  1  0
 35 33  2  0
 33 36  1  0
 37 34  2  0
 38 35  1  0
 36 39  2  0
 36 37  1  0
 40 38  2  0
 40 39  1  0
 39 41  1  0
  6 42  1  6
  7 43  1  0
  7 44  1  0
  8 45  1  0
  8 46  1  0
 12 47  1  0
 12 48  1  0
 15 49  1  0
 17 50  1  0
 18 51  1  0
 21 52  1  0
 24 53  1  0
 24 54  1  0
 25 55  1  0
 27 56  1  0
 28 57  1  0
 29 58  1  0
 30 59  1  0
 32 60  1  0
 34 61  1  0
 38 62  1  0
 41 63  1  0
 41 64  1  0
M  CHG  3   5  -1  16   1  19  -1
M  END
>  <EmbedRMS>  (427) 
0.08749979485157067

$$$$

     RDKit          3D

 64 67  0  0  0  0  0  0  0  0999 V2000
   10.2830   43.7754   33.8080 C   0  0  0  0  0  0  0  0  0  0  0  0
   11.4086   43.5914   34.3582 O   0  0  0  0  0  0  0  0  0  0  0  0
    9.3669   42.7317   33.7014 O   0  0  0  0  0  0  0  0  0  0  0  0
    9.8865   41.2344   34.2838 P   0  0  0  0  0  5  0  0  0  0  0  0
   10.3666   41.4693   35.8745 O   0  0  0  0  0  1  0  0  0  0  0  0
    9.9543   45.1110   33.2422 C   0  0  2  0  0  0  0  0  0  0  0  0
   11.0719   46.0273   33.4850 N   0  0  0  0  0  0  0  0  0  0  0  0
    8.6394   45.6445   33.8491 C   0  0  0  0  0  0  0  0  0  0  0  0
    8.2197   46.9264   33.1996 C   0  0  0  0  0  0  0  0  0  0  0  0
    7.7672   46.9077   31.8778 O   0  0  0  0  0  0  0  0  0  0  0  0
    8.3017   48.0115   33.8375 O   0  0  0  0  0  0  0  0  0  0  0  0
    7.3881   48.0884   31.1754 C   0  0  0  0  0  0  0  0  0  0  0  0
    7.0045   47.7660   29.7492 C   0  0  0  0  0  0  0  0  0  0  0  0
    6.0636   48.5556   29.0364 C   0  0  0  0  0  0  0  0  0  0  0  0
    7.6153   46.6763   29.0967 C   0  0  0  0  0  0  0  0  0  0  0  0
    5.4879   49.7431   29.6083 N   0  0  0  0  0  4  0  0  0  0  0  0
    5.6984   48.1787   27.7311 C   0  0  0  0  0  0  0  0  0  0  0  0
    7.2527   46.3308   27.7942 C   0  0  0  0  0  0  0  0  0  0  0  0
    6.2735   50.6266   30.3121 O   0  0  0  0  0  1  0  0  0  0  0  0
    4.3229   50.0797   29.3113 O   0  0  0  0  0  0  0  0  0  0  0  0
    6.2875   47.0730   27.1172 C   0  0  0  0  0  0  0  0  0  0  0  0
    8.8091   40.1913   34.2077 O   0  0  0  0  0  0  0  0  0  0  0  0
   11.2390   40.7910   33.3682 O   0  0  0  0  0  0  0  0  0  0  0  0
   10.9194   40.6896   31.9946 C   0  0  0  0  0  0  0  0  0  0  0  0
   11.5171   39.3801   31.4397 C   0  0  0  0  0  0  0  0  0  0  0  0
   12.7478   39.0862   32.0734 O   0  0  0  0  0  0  0  0  0  0  0  0
   10.6031   38.1891   31.6666 C   0  0  0  0  0  0  0  0  0  0  0  0
   12.9335   37.6797   32.0280 C   0  0  0  0  0  0  0  0  0  0  0  0
    9.6396   38.0777   30.6456 O   0  0  0  0  0  0  0  0  0  0  0  0
   11.5739   37.0154   31.7057 C   0  0  0  0  0  0  0  0  0  0  0  0
   13.4903   37.2178   33.3231 N   0  0  0  0  0  0  0  0  0  0  0  0
   11.6211   36.3376   30.4695 O   0  0  0  0  0  0  0  0  0  0  0  0
   14.4761   36.3273   33.5725 C   0  0  0  0  0  0  0  0  0  0  0  0
   13.1179   37.6316   34.5684 C   0  0  0  0  0  0  0  0  0  0  0  0
   15.2063   35.6139   32.6737 N   0  0  0  0  0  0  0  0  0  0  0  0
   14.6733   36.2277   34.9179 C   0  0  0  0  0  0  0  0  0  0  0  0
   13.8225   37.0459   35.5779 N   0  0  0  0  0  0  0  0  0  0  0  0
   16.1636   34.7594   33.1546 C   0  0  0  0  0  0  0  0  0  0  0  0
   15.6515   35.3494   35.4129 C   0  0  0  0  0  0  0  0  0  0  0  0
   16.3791   34.6311   34.5041 N   0  0  0  0  0  0  0  0  0  0  0  0
   15.9001   35.1935   36.8088 N   0  0  0  0  0  0  0  0  0  0  0  0
    9.8251   44.9826   32.1442 H   0  0  0  0  0  0  0  0  0  0  0  0
   11.0786   46.3196   34.4901 H   0  0  0  0  0  0  0  0  0  0  0  0
   10.9365   46.8888   32.9078 H   0  0  0  0  0  0  0  0  0  0  0  0
    8.7542   45.7924   34.9459 H   0  0  0  0  0  0  0  0  0  0  0  0
    7.8260   44.9031   33.6935 H   0  0  0  0  0  0  0  0  0  0  0  0
    8.2373   48.8052   31.1647 H   0  0  0  0  0  0  0  0  0  0  0  0
    6.5285   48.5437   31.7119 H   0  0  0  0  0  0  0  0  0  0  0  0
    8.3688   46.0817   29.5980 H   0  0  0  0  0  0  0  0  0  0  0  0
    4.9740   48.7612   27.1757 H   0  0  0  0  0  0  0  0  0  0  0  0
    7.7203   45.4834   27.3096 H   0  0  0  0  0  0  0  0  0  0  0  0
    6.0063   46.8010   26.1080 H   0  0  0  0  0  0  0  0  0  0  0  0
    9.8315   40.7397   31.7549 H   0  0  0  0  0  0  0  0  0  0  0  0
   11.4007   41.5437   31.4721 H   0  0  0  0  0  0  0  0  0  0  0  0
   11.6983   39.5042   30.3470 H   0  0  0  0  0  0  0  0  0  0  0  0
   10.1089   38.2632   32.6649 H   0  0  0  0  0  0  0  0  0  0  0  0
   13.6655   37.4541   31.2207 H   0  0  0  0  0  0  0  0  0  0  0  0
    8.8966   38.6901   30.8850 H   0  0  0  0  0  0  0  0  0  0  0  0
   11.2845   36.3060   32.5175 H   0  0  0  0  0  0  0  0  0  0  0  0
   10.8523   35.7095   30.4590 H   0  0  0  0  0  0  0  0  0  0  0  0
   12.3353   38.3588   34.7440 H   0  0  0  0  0  0  0  0  0  0  0  0
   16.7570   34.1788   32.4619 H   0  0  0  0  0  0  0  0  0  0  0  0
   16.6360   34.5317   37.1413 H   0  0  0  0  0  0  0  0  0  0  0  0
   15.3529   35.7359   37.5136 H   0  0  0  0  0  0  0  0  0  0  0  0
  1  2  2  0
  1  3  1  0
  3  4  1  0
  4  5  1  0
  6  1  1  0
  7  6  1  0
  6  8  1  0
  8  9  1  0
  9 10  1  0
  9 11  2  0
 10 12  1  0
 12 13  1  0
 13 14  2  0
 15 13  1  0
 14 16  1  0
 14 17  1  0
 18 15  2  0
 16 19  1  0
 16 20  2  0
 17 21  2  0
 21 18  1  0
  4 22  2  0
  4 23  1  0
 24 23  1  0
 24 25  1  0
 25 26  1  0
 25 27  1  0
 26 28  1  0
 27 29  1  0
 27 30  1  0
 30 28  1  0
 28 31  1  0
 30 32  1  0
 33 31  1  0
 34 31  1  0
 35 33  2  0
 33 36  1  0
 37 34  2  0
 38 35  1  0
 36 39  2  0
 36 37  1  0
 40 38  2  0
 40 39  1  0
 39 41  1  0
  6 42  1  6
  7 43  1  0
  7 44  1  0
  8 45  1  0
  8 46  1  0
 12 47  1  0
 12 48  1  0
 15 49  1  0
 17 50  1  0
 18 51  1  0
 21 52  1  0
 24 53  1  0
 24 54  1  0
 25 55  1  0
 27 56  1  0
 28 57  1  0
 29 58  1  0
 30 59  1  0
 32 60  1  0
 34 61  1  0
 38 62  1  0
 41 63  1  0
 41 64  1  0
M  CHG  3   5  -1  16   1  19  -1
M  END
>  <EmbedRMS>  (428) 
0.08915791915063971

$$$$

     RDKit          3D

 64 67  0  0  0  0  0  0  0  0999 V2000
   10.2848   43.7725   33.8071 C   0  0  0  0  0  0  0  0  0  0  0  0
   11.4104   43.5874   34.3564 O   0  0  0  0  0  0  0  0  0  0  0  0
    9.3664   42.7313   33.7018 O   0  0  0  0  0  0  0  0  0  0  0  0
    9.8852   41.2342   34.2849 P   0  0  0  0  0  5  0  0  0  0  0  0
   10.3654   41.4696   35.8754 O   0  0  0  0  0  1  0  0  0  0  0  0
    9.9585   45.1105   33.2432 C   0  0  2  0  0  0  0  0  0  0  0  0
   11.0674   46.0370   33.4849 N   0  0  0  0  0  0  0  0  0  0  0  0
    8.6188   45.6569   33.7867 C   0  0  0  0  0  0  0  0  0  0  0  0
    8.6086   45.8072   35.2792 C   0  0  0  0  0  0  0  0  0  0  0  0
    9.0191   47.0144   35.8505 O   0  0  0  0  0  0  0  0  0  0  0  0
    8.2610   44.8365   36.0061 O   0  0  0  0  0  0  0  0  0  0  0  0
    9.0876   47.2167   37.2596 C   0  0  0  0  0  0  0  0  0  0  0  0
    9.6346   48.5890   37.5822 C   0  0  0  0  0  0  0  0  0  0  0  0
    9.2915   49.2623   38.7860 C   0  0  0  0  0  0  0  0  0  0  0  0
   10.5329   49.2054   36.6880 C   0  0  0  0  0  0  0  0  0  0  0  0
    8.4654   48.6490   39.7913 N   0  0  0  0  0  4  0  0  0  0  0  0
    9.7816   50.5607   39.0109 C   0  0  0  0  0  0  0  0  0  0  0  0
   11.0239   50.4870   36.9407 C   0  0  0  0  0  0  0  0  0  0  0  0
    7.6512   49.4289   40.5801 O   0  0  0  0  0  1  0  0  0  0  0  0
    8.6229   47.4482   40.0937 O   0  0  0  0  0  0  0  0  0  0  0  0
   10.6393   51.1680   38.0934 C   0  0  0  0  0  0  0  0  0  0  0  0
    8.8081   40.1910   34.2084 O   0  0  0  0  0  0  0  0  0  0  0  0
   11.2380   40.7910   33.3697 O   0  0  0  0  0  0  0  0  0  0  0  0
   10.9185   40.6906   31.9963 C   0  0  0  0  0  0  0  0  0  0  0  0
   11.5174   39.3824   31.4413 C   0  0  0  0  0  0  0  0  0  0  0  0
   12.7494   39.0893   32.0757 O   0  0  0  0  0  0  0  0  0  0  0  0
   10.6035   38.1899   31.6660 C   0  0  0  0  0  0  0  0  0  0  0  0
   12.9401   37.6834   32.0276 C   0  0  0  0  0  0  0  0  0  0  0  0
    9.6376   38.0785   30.6474 O   0  0  0  0  0  0  0  0  0  0  0  0
   11.5803   37.0204   31.6937 C   0  0  0  0  0  0  0  0  0  0  0  0
   13.4902   37.2177   33.3237 N   0  0  0  0  0  0  0  0  0  0  0  0
   11.6118   36.3193   30.4680 O   0  0  0  0  0  0  0  0  0  0  0  0
   14.4758   36.3271   33.5731 C   0  0  0  0  0  0  0  0  0  0  0  0
   13.1176   37.6317   34.5688 C   0  0  0  0  0  0  0  0  0  0  0  0
   15.2064   35.6141   32.6742 N   0  0  0  0  0  0  0  0  0  0  0  0
   14.6729   36.2274   34.9184 C   0  0  0  0  0  0  0  0  0  0  0  0
   13.8221   37.0457   35.5783 N   0  0  0  0  0  0  0  0  0  0  0  0
   16.1637   34.7597   33.1549 C   0  0  0  0  0  0  0  0  0  0  0  0
   15.6514   35.3493   35.4132 C   0  0  0  0  0  0  0  0  0  0  0  0
   16.3791   34.6312   34.5043 N   0  0  0  0  0  0  0  0  0  0  0  0
   15.9001   35.1935   36.8091 N   0  0  0  0  0  0  0  0  0  0  0  0
    9.8506   44.9832   32.1438 H   0  0  0  0  0  0  0  0  0  0  0  0
   10.8486   46.9501   33.0238 H   0  0  0  0  0  0  0  0  0  0  0  0
   11.1678   46.2213   34.5095 H   0  0  0  0  0  0  0  0  0  0  0  0
    8.4107   46.6455   33.3237 H   0  0  0  0  0  0  0  0  0  0  0  0
    7.7913   44.9791   33.4823 H   0  0  0  0  0  0  0  0  0  0  0  0
    8.0615   47.1054   37.6705 H   0  0  0  0  0  0  0  0  0  0  0  0
    9.7519   46.4507   37.7146 H   0  0  0  0  0  0  0  0  0  0  0  0
   10.8502   48.7006   35.7841 H   0  0  0  0  0  0  0  0  0  0  0  0
    9.5209   51.0950   39.9157 H   0  0  0  0  0  0  0  0  0  0  0  0
   11.7028   50.9540   36.2388 H   0  0  0  0  0  0  0  0  0  0  0  0
   11.0194   52.1633   38.2851 H   0  0  0  0  0  0  0  0  0  0  0  0
    9.8306   40.7396   31.7564 H   0  0  0  0  0  0  0  0  0  0  0  0
   11.3992   41.5455   31.4745 H   0  0  0  0  0  0  0  0  0  0  0  0
   11.6988   39.5092   30.3491 H   0  0  0  0  0  0  0  0  0  0  0  0
   10.1129   38.2588   32.6664 H   0  0  0  0  0  0  0  0  0  0  0  0
   13.6800   37.4629   31.2265 H   0  0  0  0  0  0  0  0  0  0  0  0
    8.8952   38.6907   30.8892 H   0  0  0  0  0  0  0  0  0  0  0  0
   11.2831   36.3060   32.4929 H   0  0  0  0  0  0  0  0  0  0  0  0
   11.8859   36.9590   29.7593 H   0  0  0  0  0  0  0  0  0  0  0  0
   12.3360   38.3600   34.7442 H   0  0  0  0  0  0  0  0  0  0  0  0
   16.7572   34.1793   32.4621 H   0  0  0  0  0  0  0  0  0  0  0  0
   16.6362   34.5318   37.1415 H   0  0  0  0  0  0  0  0  0  0  0  0
   15.3528   35.7356   37.5140 H   0  0  0  0  0  0  0  0  0  0  0  0
  1  2  2  0
  1  3  1  0
  3  4  1  0
  4  5  1  0
  6  1  1  0
  7  6  1  0
  6  8  1  0
  8  9  1  0
  9 10  1  0
  9 11  2  0
 10 12  1  0
 12 13  1  0
 13 14  2  0
 15 13  1  0
 14 16  1  0
 14 17  1  0
 18 15  2  0
 16 19  1  0
 16 20  2  0
 17 21  2  0
 21 18  1  0
  4 22  2  0
  4 23  1  0
 24 23  1  0
 24 25  1  0
 25 26  1  0
 25 27  1  0
 26 28  1  0
 27 29  1  0
 27 30  1  0
 30 28  1  0
 28 31  1  0
 30 32  1  0
 33 31  1  0
 34 31  1  0
 35 33  2  0
 33 36  1  0
 37 34  2  0
 38 35  1  0
 36 39  2  0
 36 37  1  0
 40 38  2  0
 40 39  1  0
 39 41  1  0
  6 42  1  6
  7 43  1  0
  7 44  1  0
  8 45  1  0
  8 46  1  0
 12 47  1  0
 12 48  1  0
 15 49  1  0
 17 50  1  0
 18 51  1  0
 21 52  1  0
 24 53  1  0
 24 54  1  0
 25 55  1  0
 27 56  1  0
 28 57  1  0
 29 58  1  0
 30 59  1  0
 32 60  1  0
 34 61  1  0
 38 62  1  0
 41 63  1  0
 41 64  1  0
M  CHG  3   5  -1  16   1  19  -1
M  END
>  <EmbedRMS>  (429) 
0.08820562602490625

$$$$

     RDKit          3D

 64 67  0  0  0  0  0  0  0  0999 V2000
   10.2859   43.7721   33.8047 C   0  0  0  0  0  0  0  0  0  0  0  0
   11.4084   43.5886   34.3610 O   0  0  0  0  0  0  0  0  0  0  0  0
    9.3672   42.7311   33.6995 O   0  0  0  0  0  0  0  0  0  0  0  0
    9.8853   41.2343   34.2839 P   0  0  0  0  0  5  0  0  0  0  0  0
   10.3662   41.4700   35.8742 O   0  0  0  0  0  1  0  0  0  0  0  0
    9.9529   45.1148   33.2533 C   0  0  2  0  0  0  0  0  0  0  0  0
   11.0714   46.0331   33.4766 N   0  0  0  0  0  0  0  0  0  0  0  0
    8.6598   45.6656   33.8887 C   0  0  0  0  0  0  0  0  0  0  0  0
    8.7900   45.8560   35.3709 C   0  0  0  0  0  0  0  0  0  0  0  0
    9.4443   46.9885   35.8623 O   0  0  0  0  0  0  0  0  0  0  0  0
    8.3436   44.9777   36.1586 O   0  0  0  0  0  0  0  0  0  0  0  0
    9.6545   47.2147   37.2536 C   0  0  0  0  0  0  0  0  0  0  0  0
   10.4499   48.4805   37.4809 C   0  0  0  0  0  0  0  0  0  0  0  0
   10.3193   49.2362   38.6776 C   0  0  0  0  0  0  0  0  0  0  0  0
   11.3688   48.9076   36.5011 C   0  0  0  0  0  0  0  0  0  0  0  0
    9.4807   48.8029   39.7628 N   0  0  0  0  0  4  0  0  0  0  0  0
   11.0386   50.4365   38.8142 C   0  0  0  0  0  0  0  0  0  0  0  0
   12.0881   50.0919   36.6662 C   0  0  0  0  0  0  0  0  0  0  0  0
    8.8736   49.7332   40.5749 O   0  0  0  0  0  1  0  0  0  0  0  0
    9.4547   47.6018   40.1020 O   0  0  0  0  0  0  0  0  0  0  0  0
   11.9142   50.8610   37.8145 C   0  0  0  0  0  0  0  0  0  0  0  0
    8.8077   40.1914   34.2086 O   0  0  0  0  0  0  0  0  0  0  0  0
   11.2368   40.7908   33.3672 O   0  0  0  0  0  0  0  0  0  0  0  0
   10.9136   40.6860   31.9946 C   0  0  0  0  0  0  0  0  0  0  0  0
   11.5170   39.3797   31.4409 C   0  0  0  0  0  0  0  0  0  0  0  0
   12.7488   39.0886   32.0762 O   0  0  0  0  0  0  0  0  0  0  0  0
   10.6051   38.1876   31.6659 C   0  0  0  0  0  0  0  0  0  0  0  0
   12.9412   37.6828   32.0278 C   0  0  0  0  0  0  0  0  0  0  0  0
    9.6358   38.0930   30.6503 O   0  0  0  0  0  0  0  0  0  0  0  0
   11.5827   37.0179   31.6936 C   0  0  0  0  0  0  0  0  0  0  0  0
   13.4909   37.2176   33.3239 N   0  0  0  0  0  0  0  0  0  0  0  0
   11.6140   36.3180   30.4675 O   0  0  0  0  0  0  0  0  0  0  0  0
   14.4763   36.3270   33.5733 C   0  0  0  0  0  0  0  0  0  0  0  0
   13.1179   37.6316   34.5689 C   0  0  0  0  0  0  0  0  0  0  0  0
   15.2067   35.6140   32.6744 N   0  0  0  0  0  0  0  0  0  0  0  0
   14.6731   36.2272   34.9186 C   0  0  0  0  0  0  0  0  0  0  0  0
   13.8223   37.0456   35.5785 N   0  0  0  0  0  0  0  0  0  0  0  0
   16.1639   34.7595   33.1551 C   0  0  0  0  0  0  0  0  0  0  0  0
   15.6515   35.3491   35.4134 C   0  0  0  0  0  0  0  0  0  0  0  0
   16.3793   34.6310   34.5045 N   0  0  0  0  0  0  0  0  0  0  0  0
   15.9002   35.1933   36.8093 N   0  0  0  0  0  0  0  0  0  0  0  0
    9.7835   45.0055   32.1584 H   0  0  0  0  0  0  0  0  0  0  0  0
   10.8100   46.9725   33.0975 H   0  0  0  0  0  0  0  0  0  0  0  0
   11.8824   45.7134   32.8972 H   0  0  0  0  0  0  0  0  0  0  0  0
    7.8125   44.9781   33.6726 H   0  0  0  0  0  0  0  0  0  0  0  0
    8.4079   46.6429   33.4236 H   0  0  0  0  0  0  0  0  0  0  0  0
    8.6591   47.2934   37.7406 H   0  0  0  0  0  0  0  0  0  0  0  0
   10.2120   46.3584   37.6909 H   0  0  0  0  0  0  0  0  0  0  0  0
   11.5258   48.3305   35.5985 H   0  0  0  0  0  0  0  0  0  0  0  0
   10.9426   51.0329   39.7127 H   0  0  0  0  0  0  0  0  0  0  0  0
   12.7808   50.4150   35.8997 H   0  0  0  0  0  0  0  0  0  0  0  0
   12.4713   51.7808   37.9383 H   0  0  0  0  0  0  0  0  0  0  0  0
   11.3856   41.5433   31.4688 H   0  0  0  0  0  0  0  0  0  0  0  0
    9.8235   40.7210   31.7580 H   0  0  0  0  0  0  0  0  0  0  0  0
   11.6994   39.5065   30.3487 H   0  0  0  0  0  0  0  0  0  0  0  0
   10.1120   38.2722   32.6632 H   0  0  0  0  0  0  0  0  0  0  0  0
   13.6816   37.4632   31.2269 H   0  0  0  0  0  0  0  0  0  0  0  0
    9.0037   37.3828   30.9349 H   0  0  0  0  0  0  0  0  0  0  0  0
   11.2846   36.3040   32.4928 H   0  0  0  0  0  0  0  0  0  0  0  0
   11.8850   36.9590   29.7588 H   0  0  0  0  0  0  0  0  0  0  0  0
   12.3363   38.3599   34.7441 H   0  0  0  0  0  0  0  0  0  0  0  0
   16.7574   34.1790   32.4623 H   0  0  0  0  0  0  0  0  0  0  0  0
   15.3529   35.7356   37.5141 H   0  0  0  0  0  0  0  0  0  0  0  0
   16.6363   34.5317   37.1418 H   0  0  0  0  0  0  0  0  0  0  0  0
  1  2  2  0
  1  3  1  0
  3  4  1  0
  4  5  1  0
  6  1  1  0
  7  6  1  0
  6  8  1  0
  8  9  1  0
  9 10  1  0
  9 11  2  0
 10 12  1  0
 12 13  1  0
 13 14  2  0
 15 13  1  0
 14 16  1  0
 14 17  1  0
 18 15  2  0
 16 19  1  0
 16 20  2  0
 17 21  2  0
 21 18  1  0
  4 22  2  0
  4 23  1  0
 24 23  1  0
 24 25  1  0
 25 26  1  0
 25 27  1  0
 26 28  1  0
 27 29  1  0
 27 30  1  0
 30 28  1  0
 28 31  1  0
 30 32  1  0
 33 31  1  0
 34 31  1  0
 35 33  2  0
 33 36  1  0
 37 34  2  0
 38 35  1  0
 36 39  2  0
 36 37  1  0
 40 38  2  0
 40 39  1  0
 39 41  1  0
  6 42  1  6
  7 43  1  0
  7 44  1  0
  8 45  1  0
  8 46  1  0
 12 47  1  0
 12 48  1  0
 15 49  1  0
 17 50  1  0
 18 51  1  0
 21 52  1  0
 24 53  1  0
 24 54  1  0
 25 55  1  0
 27 56  1  0
 28 57  1  0
 29 58  1  0
 30 59  1  0
 32 60  1  0
 34 61  1  0
 38 62  1  0
 41 63  1  0
 41 64  1  0
M  CHG  3   5  -1  16   1  19  -1
M  END
>  <EmbedRMS>  (430) 
0.08785630308281571

$$$$

     RDKit          3D

 64 67  0  0  0  0  0  0  0  0999 V2000
   10.2846   43.7741   33.8067 C   0  0  0  0  0  0  0  0  0  0  0  0
   11.4069   43.5900   34.3637 O   0  0  0  0  0  0  0  0  0  0  0  0
    9.3677   42.7312   33.6991 O   0  0  0  0  0  0  0  0  0  0  0  0
    9.8858   41.2343   34.2835 P   0  0  0  0  0  5  0  0  0  0  0  0
   10.3665   41.4695   35.8740 O   0  0  0  0  0  1  0  0  0  0  0  0
    9.9496   45.1163   33.2550 C   0  0  2  0  0  0  0  0  0  0  0  0
   11.0750   46.0287   33.4730 N   0  0  0  0  0  0  0  0  0  0  0  0
    8.6778   45.6518   33.9430 C   0  0  0  0  0  0  0  0  0  0  0  0
    8.2059   46.9321   33.3255 C   0  0  0  0  0  0  0  0  0  0  0  0
    8.2876   48.1215   34.0583 O   0  0  0  0  0  0  0  0  0  0  0  0
    7.7493   46.9294   32.1495 O   0  0  0  0  0  0  0  0  0  0  0  0
    7.9576   49.3966   33.5116 C   0  0  0  0  0  0  0  0  0  0  0  0
    9.0141   49.8414   32.5268 C   0  0  0  0  0  0  0  0  0  0  0  0
   10.3887   49.9346   32.8789 C   0  0  0  0  0  0  0  0  0  0  0  0
    8.6235   50.1204   31.2040 C   0  0  0  0  0  0  0  0  0  0  0  0
   10.8539   49.6712   34.2165 N   0  0  0  0  0  4  0  0  0  0  0  0
   11.3262   50.2753   31.8859 C   0  0  0  0  0  0  0  0  0  0  0  0
    9.5689   50.4714   30.2402 C   0  0  0  0  0  0  0  0  0  0  0  0
   10.1262   50.0799   35.3094 O   0  0  0  0  0  1  0  0  0  0  0  0
   12.0012   49.2143   34.4007 O   0  0  0  0  0  0  0  0  0  0  0  0
   10.9179   50.5443   30.5792 C   0  0  0  0  0  0  0  0  0  0  0  0
    8.8081   40.1915   34.2081 O   0  0  0  0  0  0  0  0  0  0  0  0
   11.2372   40.7909   33.3668 O   0  0  0  0  0  0  0  0  0  0  0  0
   10.9138   40.6860   31.9943 C   0  0  0  0  0  0  0  0  0  0  0  0
   11.5171   39.3797   31.4408 C   0  0  0  0  0  0  0  0  0  0  0  0
   12.7488   39.0885   32.0761 O   0  0  0  0  0  0  0  0  0  0  0  0
   10.6052   38.1876   31.6659 C   0  0  0  0  0  0  0  0  0  0  0  0
   12.9412   37.6828   32.0278 C   0  0  0  0  0  0  0  0  0  0  0  0
    9.6359   38.0930   30.6503 O   0  0  0  0  0  0  0  0  0  0  0  0
   11.5827   37.0179   31.6936 C   0  0  0  0  0  0  0  0  0  0  0  0
   13.4909   37.2176   33.3239 N   0  0  0  0  0  0  0  0  0  0  0  0
   11.6140   36.3180   30.4675 O   0  0  0  0  0  0  0  0  0  0  0  0
   14.4763   36.3270   33.5733 C   0  0  0  0  0  0  0  0  0  0  0  0
   13.1179   37.6316   34.5689 C   0  0  0  0  0  0  0  0  0  0  0  0
   15.2067   35.6140   32.6744 N   0  0  0  0  0  0  0  0  0  0  0  0
   14.6731   36.2272   34.9186 C   0  0  0  0  0  0  0  0  0  0  0  0
   13.8223   37.0456   35.5785 N   0  0  0  0  0  0  0  0  0  0  0  0
   16.1639   34.7595   33.1551 C   0  0  0  0  0  0  0  0  0  0  0  0
   15.6515   35.3491   35.4134 C   0  0  0  0  0  0  0  0  0  0  0  0
   16.3793   34.6310   34.5046 N   0  0  0  0  0  0  0  0  0  0  0  0
   15.9002   35.1933   36.8093 N   0  0  0  0  0  0  0  0  0  0  0  0
    9.7641   45.0050   32.1624 H   0  0  0  0  0  0  0  0  0  0  0  0
   10.8487   46.9485   33.0314 H   0  0  0  0  0  0  0  0  0  0  0  0
   11.8995   45.6715   32.9360 H   0  0  0  0  0  0  0  0  0  0  0  0
    8.8759   45.8139   35.0254 H   0  0  0  0  0  0  0  0  0  0  0  0
    7.8561   44.9075   33.8569 H   0  0  0  0  0  0  0  0  0  0  0  0
    7.8754   50.1404   34.3294 H   0  0  0  0  0  0  0  0  0  0  0  0
    6.9509   49.3448   33.0411 H   0  0  0  0  0  0  0  0  0  0  0  0
    7.5829   50.0542   30.9111 H   0  0  0  0  0  0  0  0  0  0  0  0
   12.3789   50.3476   32.1283 H   0  0  0  0  0  0  0  0  0  0  0  0
    9.2550   50.6800   29.2255 H   0  0  0  0  0  0  0  0  0  0  0  0
   11.6499   50.8122   29.8282 H   0  0  0  0  0  0  0  0  0  0  0  0
    9.8237   40.7211   31.7577 H   0  0  0  0  0  0  0  0  0  0  0  0
   11.3859   41.5433   31.4684 H   0  0  0  0  0  0  0  0  0  0  0  0
   11.6996   39.5063   30.3486 H   0  0  0  0  0  0  0  0  0  0  0  0
   10.1121   38.2723   32.6631 H   0  0  0  0  0  0  0  0  0  0  0  0
   13.6816   37.4631   31.2269 H   0  0  0  0  0  0  0  0  0  0  0  0
    9.0037   37.3828   30.9349 H   0  0  0  0  0  0  0  0  0  0  0  0
   11.2846   36.3040   32.4928 H   0  0  0  0  0  0  0  0  0  0  0  0
   11.8850   36.9590   29.7588 H   0  0  0  0  0  0  0  0  0  0  0  0
   12.3363   38.3599   34.7441 H   0  0  0  0  0  0  0  0  0  0  0  0
   16.7574   34.1790   32.4623 H   0  0  0  0  0  0  0  0  0  0  0  0
   15.3529   35.7355   37.5141 H   0  0  0  0  0  0  0  0  0  0  0  0
   16.6363   34.5317   37.1418 H   0  0  0  0  0  0  0  0  0  0  0  0
  1  2  2  0
  1  3  1  0
  3  4  1  0
  4  5  1  0
  6  1  1  0
  7  6  1  0
  6  8  1  0
  8  9  1  0
  9 10  1  0
  9 11  2  0
 10 12  1  0
 12 13  1  0
 13 14  2  0
 15 13  1  0
 14 16  1  0
 14 17  1  0
 18 15  2  0
 16 19  1  0
 16 20  2  0
 17 21  2  0
 21 18  1  0
  4 22  2  0
  4 23  1  0
 24 23  1  0
 24 25  1  0
 25 26  1  0
 25 27  1  0
 26 28  1  0
 27 29  1  0
 27 30  1  0
 30 28  1  0
 28 31  1  0
 30 32  1  0
 33 31  1  0
 34 31  1  0
 35 33  2  0
 33 36  1  0
 37 34  2  0
 38 35  1  0
 36 39  2  0
 36 37  1  0
 40 38  2  0
 40 39  1  0
 39 41  1  0
  6 42  1  6
  7 43  1  0
  7 44  1  0
  8 45  1  0
  8 46  1  0
 12 47  1  0
 12 48  1  0
 15 49  1  0
 17 50  1  0
 18 51  1  0
 21 52  1  0
 24 53  1  0
 24 54  1  0
 25 55  1  0
 27 56  1  0
 28 57  1  0
 29 58  1  0
 30 59  1  0
 32 60  1  0
 34 61  1  0
 38 62  1  0
 41 63  1  0
 41 64  1  0
M  CHG  3   5  -1  16   1  19  -1
M  END
>  <EmbedRMS>  (431) 
0.08794006499475863

$$$$

     RDKit          3D

 64 67  0  0  0  0  0  0  0  0999 V2000
   10.2802   43.7765   33.8117 C   0  0  0  0  0  0  0  0  0  0  0  0
   11.4065   43.5922   34.3605 O   0  0  0  0  0  0  0  0  0  0  0  0
    9.3682   42.7300   33.7021 O   0  0  0  0  0  0  0  0  0  0  0  0
    9.8869   41.2333   34.2831 P   0  0  0  0  0  5  0  0  0  0  0  0
   10.3678   41.4679   35.8736 O   0  0  0  0  0  1  0  0  0  0  0  0
    9.9540   45.1155   33.2418 C   0  0  2  0  0  0  0  0  0  0  0  0
   11.0749   46.0262   33.4817 N   0  0  0  0  0  0  0  0  0  0  0  0
    8.6504   45.6968   33.8391 C   0  0  0  0  0  0  0  0  0  0  0  0
    7.4257   44.9113   33.4666 C   0  0  0  0  0  0  0  0  0  0  0  0
    7.3682   44.2437   32.2396 O   0  0  0  0  0  0  0  0  0  0  0  0
    6.4396   44.8908   34.2524 O   0  0  0  0  0  0  0  0  0  0  0  0
    6.2595   43.4440   31.8463 C   0  0  0  0  0  0  0  0  0  0  0  0
    6.5909   42.7396   30.5575 C   0  0  0  0  0  0  0  0  0  0  0  0
    6.4308   43.3604   29.2892 C   0  0  0  0  0  0  0  0  0  0  0  0
    7.0917   41.4267   30.6227 C   0  0  0  0  0  0  0  0  0  0  0  0
    5.9728   44.7183   29.1545 N   0  0  0  0  0  4  0  0  0  0  0  0
    6.7230   42.6242   28.1270 C   0  0  0  0  0  0  0  0  0  0  0  0
    7.3910   40.7208   29.4572 C   0  0  0  0  0  0  0  0  0  0  0  0
    5.2723   45.0980   28.0326 O   0  0  0  0  0  1  0  0  0  0  0  0
    6.3518   45.6012   29.9510 O   0  0  0  0  0  0  0  0  0  0  0  0
    7.2008   41.3157   28.2119 C   0  0  0  0  0  0  0  0  0  0  0  0
    8.8084   40.1914   34.2072 O   0  0  0  0  0  0  0  0  0  0  0  0
   11.2377   40.7912   33.3648 O   0  0  0  0  0  0  0  0  0  0  0  0
   10.9131   40.6843   31.9924 C   0  0  0  0  0  0  0  0  0  0  0  0
   11.5171   39.3773   31.4390 C   0  0  0  0  0  0  0  0  0  0  0  0
   12.7475   39.0871   32.0752 O   0  0  0  0  0  0  0  0  0  0  0  0
   10.6068   38.1851   31.6659 C   0  0  0  0  0  0  0  0  0  0  0  0
   12.9370   37.6813   32.0289 C   0  0  0  0  0  0  0  0  0  0  0  0
    9.6412   38.0870   30.6476 O   0  0  0  0  0  0  0  0  0  0  0  0
   11.5788   37.0135   31.7048 C   0  0  0  0  0  0  0  0  0  0  0  0
   13.4915   37.2185   33.3238 N   0  0  0  0  0  0  0  0  0  0  0  0
   11.6123   36.3388   30.4677 O   0  0  0  0  0  0  0  0  0  0  0  0
   14.4766   36.3273   33.5730 C   0  0  0  0  0  0  0  0  0  0  0  0
   13.1184   37.6319   34.5690 C   0  0  0  0  0  0  0  0  0  0  0  0
   15.2066   35.6140   32.6740 N   0  0  0  0  0  0  0  0  0  0  0  0
   14.6735   36.2274   34.9184 C   0  0  0  0  0  0  0  0  0  0  0  0
   13.8227   37.0456   35.5785 N   0  0  0  0  0  0  0  0  0  0  0  0
   16.1637   34.7593   33.1547 C   0  0  0  0  0  0  0  0  0  0  0  0
   15.6516   35.3491   35.4132 C   0  0  0  0  0  0  0  0  0  0  0  0
   16.3792   34.6309   34.5042 N   0  0  0  0  0  0  0  0  0  0  0  0
   15.9003   35.1932   36.8090 N   0  0  0  0  0  0  0  0  0  0  0  0
    9.8353   44.9976   32.1419 H   0  0  0  0  0  0  0  0  0  0  0  0
   11.1096   46.2822   34.4963 H   0  0  0  0  0  0  0  0  0  0  0  0
   10.9090   46.9091   32.9454 H   0  0  0  0  0  0  0  0  0  0  0  0
    8.7368   45.7421   34.9475 H   0  0  0  0  0  0  0  0  0  0  0  0
    8.5095   46.7347   33.4685 H   0  0  0  0  0  0  0  0  0  0  0  0
    6.0371   42.7007   32.6439 H   0  0  0  0  0  0  0  0  0  0  0  0
    5.3529   44.0751   31.7279 H   0  0  0  0  0  0  0  0  0  0  0  0
    7.2416   40.9423   31.5801 H   0  0  0  0  0  0  0  0  0  0  0  0
    6.6012   43.0730   27.1494 H   0  0  0  0  0  0  0  0  0  0  0  0
    7.7652   39.7079   29.5193 H   0  0  0  0  0  0  0  0  0  0  0  0
    7.4309   40.7644   27.3093 H   0  0  0  0  0  0  0  0  0  0  0  0
   11.3828   41.5417   31.4647 H   0  0  0  0  0  0  0  0  0  0  0  0
    9.8234   40.7178   31.7574 H   0  0  0  0  0  0  0  0  0  0  0  0
   11.6997   39.5016   30.3465 H   0  0  0  0  0  0  0  0  0  0  0  0
   10.1095   38.2758   32.6607 H   0  0  0  0  0  0  0  0  0  0  0  0
   13.6711   37.4592   31.2226 H   0  0  0  0  0  0  0  0  0  0  0  0
    8.9962   37.3921   30.9412 H   0  0  0  0  0  0  0  0  0  0  0  0
   11.2705   36.3051   32.5093 H   0  0  0  0  0  0  0  0  0  0  0  0
   12.1439   35.5135   30.6146 H   0  0  0  0  0  0  0  0  0  0  0  0
   12.3361   38.3593   34.7444 H   0  0  0  0  0  0  0  0  0  0  0  0
   16.7570   34.1787   32.4620 H   0  0  0  0  0  0  0  0  0  0  0  0
   15.3531   35.7356   37.5139 H   0  0  0  0  0  0  0  0  0  0  0  0
   16.6362   34.5314   37.1415 H   0  0  0  0  0  0  0  0  0  0  0  0
  1  2  2  0
  1  3  1  0
  3  4  1  0
  4  5  1  0
  6  1  1  0
  7  6  1  0
  6  8  1  0
  8  9  1  0
  9 10  1  0
  9 11  2  0
 10 12  1  0
 12 13  1  0
 13 14  2  0
 15 13  1  0
 14 16  1  0
 14 17  1  0
 18 15  2  0
 16 19  1  0
 16 20  2  0
 17 21  2  0
 21 18  1  0
  4 22  2  0
  4 23  1  0
 24 23  1  0
 24 25  1  0
 25 26  1  0
 25 27  1  0
 26 28  1  0
 27 29  1  0
 27 30  1  0
 30 28  1  0
 28 31  1  0
 30 32  1  0
 33 31  1  0
 34 31  1  0
 35 33  2  0
 33 36  1  0
 37 34  2  0
 38 35  1  0
 36 39  2  0
 36 37  1  0
 40 38  2  0
 40 39  1  0
 39 41  1  0
  6 42  1  6
  7 43  1  0
  7 44  1  0
  8 45  1  0
  8 46  1  0
 12 47  1  0
 12 48  1  0
 15 49  1  0
 17 50  1  0
 18 51  1  0
 21 52  1  0
 24 53  1  0
 24 54  1  0
 25 55  1  0
 27 56  1  0
 28 57  1  0
 29 58  1  0
 30 59  1  0
 32 60  1  0
 34 61  1  0
 38 62  1  0
 41 63  1  0
 41 64  1  0
M  CHG  3   5  -1  16   1  19  -1
M  END
>  <EmbedRMS>  (432) 
0.08889975779865059

$$$$

     RDKit          3D

 64 67  0  0  0  0  0  0  0  0999 V2000
   10.2844   43.7717   33.8119 C   0  0  0  0  0  0  0  0  0  0  0  0
   11.4084   43.5831   34.3636 O   0  0  0  0  0  0  0  0  0  0  0  0
    9.3705   42.7279   33.6978 O   0  0  0  0  0  0  0  0  0  0  0  0
    9.8860   41.2317   34.2835 P   0  0  0  0  0  5  0  0  0  0  0  0
   10.3647   41.4682   35.8745 O   0  0  0  0  0  1  0  0  0  0  0  0
    9.9559   45.1186   33.2540 C   0  0  2  0  0  0  0  0  0  0  0  0
   11.0694   46.0450   33.4685 N   0  0  0  0  0  0  0  0  0  0  0  0
    8.6812   45.7039   33.8914 C   0  0  0  0  0  0  0  0  0  0  0  0
    7.4521   44.9461   33.4917 C   0  0  0  0  0  0  0  0  0  0  0  0
    6.8592   44.0681   34.4060 O   0  0  0  0  0  0  0  0  0  0  0  0
    6.9830   45.0831   32.3294 O   0  0  0  0  0  0  0  0  0  0  0  0
    5.7475   43.2319   34.0896 C   0  0  0  0  0  0  0  0  0  0  0  0
    4.4952   44.0536   33.8827 C   0  0  0  0  0  0  0  0  0  0  0  0
    3.6653   43.9196   32.7377 C   0  0  0  0  0  0  0  0  0  0  0  0
    4.0958   44.9164   34.9195 C   0  0  0  0  0  0  0  0  0  0  0  0
    4.0144   43.0637   31.6397 N   0  0  0  0  0  4  0  0  0  0  0  0
    2.4602   44.6394   32.6741 C   0  0  0  0  0  0  0  0  0  0  0  0
    2.9047   45.6378   34.8288 C   0  0  0  0  0  0  0  0  0  0  0  0
    3.0385   42.3103   31.0292 O   0  0  0  0  0  1  0  0  0  0  0  0
    5.1164   43.1954   31.0693 O   0  0  0  0  0  0  0  0  0  0  0  0
    2.0863   45.4966   33.7098 C   0  0  0  0  0  0  0  0  0  0  0  0
    8.8071   40.1904   34.2070 O   0  0  0  0  0  0  0  0  0  0  0  0
   11.2387   40.7879   33.3690 O   0  0  0  0  0  0  0  0  0  0  0  0
   10.9199   40.6890   31.9950 C   0  0  0  0  0  0  0  0  0  0  0  0
   11.5172   39.3799   31.4394 C   0  0  0  0  0  0  0  0  0  0  0  0
   12.7481   39.0859   32.0729 O   0  0  0  0  0  0  0  0  0  0  0  0
   10.6031   38.1891   31.6665 C   0  0  0  0  0  0  0  0  0  0  0  0
   12.9335   37.6794   32.0278 C   0  0  0  0  0  0  0  0  0  0  0  0
    9.6396   38.0777   30.6456 O   0  0  0  0  0  0  0  0  0  0  0  0
   11.5739   37.0153   31.7057 C   0  0  0  0  0  0  0  0  0  0  0  0
   13.4903   37.2177   33.3230 N   0  0  0  0  0  0  0  0  0  0  0  0
   11.6210   36.3375   30.4694 O   0  0  0  0  0  0  0  0  0  0  0  0
   14.4761   36.3273   33.5725 C   0  0  0  0  0  0  0  0  0  0  0  0
   13.1178   37.6316   34.5683 C   0  0  0  0  0  0  0  0  0  0  0  0
   15.2063   35.6138   32.6737 N   0  0  0  0  0  0  0  0  0  0  0  0
   14.6733   36.2277   34.9179 C   0  0  0  0  0  0  0  0  0  0  0  0
   13.8225   37.0459   35.5779 N   0  0  0  0  0  0  0  0  0  0  0  0
   16.1636   34.7594   33.1546 C   0  0  0  0  0  0  0  0  0  0  0  0
   15.6515   35.3494   35.4129 C   0  0  0  0  0  0  0  0  0  0  0  0
   16.3791   34.6311   34.5041 N   0  0  0  0  0  0  0  0  0  0  0  0
   15.9001   35.1936   36.8088 N   0  0  0  0  0  0  0  0  0  0  0  0
    9.7966   45.0137   32.1578 H   0  0  0  0  0  0  0  0  0  0  0  0
   11.2898   46.1161   34.4897 H   0  0  0  0  0  0  0  0  0  0  0  0
   11.9186   45.6920   32.9687 H   0  0  0  0  0  0  0  0  0  0  0  0
    8.5600   46.7604   33.5666 H   0  0  0  0  0  0  0  0  0  0  0  0
    8.7748   45.7042   34.9996 H   0  0  0  0  0  0  0  0  0  0  0  0
    6.0040   42.5884   33.2263 H   0  0  0  0  0  0  0  0  0  0  0  0
    5.5735   42.5470   34.9459 H   0  0  0  0  0  0  0  0  0  0  0  0
    4.7056   45.0214   35.8088 H   0  0  0  0  0  0  0  0  0  0  0  0
    1.8155   44.5474   31.8089 H   0  0  0  0  0  0  0  0  0  0  0  0
    2.6104   46.2993   35.6334 H   0  0  0  0  0  0  0  0  0  0  0  0
    1.1597   46.0522   33.6442 H   0  0  0  0  0  0  0  0  0  0  0  0
   11.4023   41.5435   31.4741 H   0  0  0  0  0  0  0  0  0  0  0  0
    9.8322   40.7399   31.7545 H   0  0  0  0  0  0  0  0  0  0  0  0
   11.6982   39.5043   30.3467 H   0  0  0  0  0  0  0  0  0  0  0  0
   10.1091   38.2632   32.6648 H   0  0  0  0  0  0  0  0  0  0  0  0
   13.6655   37.4536   31.2206 H   0  0  0  0  0  0  0  0  0  0  0  0
    8.8967   38.6904   30.8850 H   0  0  0  0  0  0  0  0  0  0  0  0
   11.2845   36.3059   32.5175 H   0  0  0  0  0  0  0  0  0  0  0  0
   10.8522   35.7094   30.4589 H   0  0  0  0  0  0  0  0  0  0  0  0
   12.3352   38.3587   34.7438 H   0  0  0  0  0  0  0  0  0  0  0  0
   16.7570   34.1788   32.4619 H   0  0  0  0  0  0  0  0  0  0  0  0
   16.6359   34.5317   37.1414 H   0  0  0  0  0  0  0  0  0  0  0  0
   15.3529   35.7359   37.5136 H   0  0  0  0  0  0  0  0  0  0  0  0
  1  2  2  0
  1  3  1  0
  3  4  1  0
  4  5  1  0
  6  1  1  0
  7  6  1  0
  6  8  1  0
  8  9  1  0
  9 10  1  0
  9 11  2  0
 10 12  1  0
 12 13  1  0
 13 14  2  0
 15 13  1  0
 14 16  1  0
 14 17  1  0
 18 15  2  0
 16 19  1  0
 16 20  2  0
 17 21  2  0
 21 18  1  0
  4 22  2  0
  4 23  1  0
 24 23  1  0
 24 25  1  0
 25 26  1  0
 25 27  1  0
 26 28  1  0
 27 29  1  0
 27 30  1  0
 30 28  1  0
 28 31  1  0
 30 32  1  0
 33 31  1  0
 34 31  1  0
 35 33  2  0
 33 36  1  0
 37 34  2  0
 38 35  1  0
 36 39  2  0
 36 37  1  0
 40 38  2  0
 40 39  1  0
 39 41  1  0
  6 42  1  6
  7 43  1  0
  7 44  1  0
  8 45  1  0
  8 46  1  0
 12 47  1  0
 12 48  1  0
 15 49  1  0
 17 50  1  0
 18 51  1  0
 21 52  1  0
 24 53  1  0
 24 54  1  0
 25 55  1  0
 27 56  1  0
 28 57  1  0
 29 58  1  0
 30 59  1  0
 32 60  1  0
 34 61  1  0
 38 62  1  0
 41 63  1  0
 41 64  1  0
M  CHG  3   5  -1  16   1  19  -1
M  END
>  <EmbedRMS>  (433) 
0.09033198761748022

$$$$

     RDKit          3D

 64 67  0  0  0  0  0  0  0  0999 V2000
   10.2848   43.7726   33.8069 C   0  0  0  0  0  0  0  0  0  0  0  0
   11.4104   43.5874   34.3563 O   0  0  0  0  0  0  0  0  0  0  0  0
    9.3664   42.7314   33.7014 O   0  0  0  0  0  0  0  0  0  0  0  0
    9.8855   41.2340   34.2836 P   0  0  0  0  0  5  0  0  0  0  0  0
   10.3668   41.4692   35.8739 O   0  0  0  0  0  1  0  0  0  0  0  0
    9.9582   45.1108   33.2438 C   0  0  2  0  0  0  0  0  0  0  0  0
   11.0676   46.0367   33.4846 N   0  0  0  0  0  0  0  0  0  0  0  0
    8.6196   45.6579   33.7894 C   0  0  0  0  0  0  0  0  0  0  0  0
    8.6090   45.8024   35.2826 C   0  0  0  0  0  0  0  0  0  0  0  0
    9.0085   47.0110   35.8591 O   0  0  0  0  0  0  0  0  0  0  0  0
    8.2683   44.8263   36.0056 O   0  0  0  0  0  0  0  0  0  0  0  0
    9.0637   47.2107   37.2692 C   0  0  0  0  0  0  0  0  0  0  0  0
    9.5348   48.6088   37.5990 C   0  0  0  0  0  0  0  0  0  0  0  0
   10.2236   48.8934   38.8081 C   0  0  0  0  0  0  0  0  0  0  0  0
    9.2625   49.6628   36.7040 C   0  0  0  0  0  0  0  0  0  0  0  0
   10.4387   47.8838   39.8098 N   0  0  0  0  0  4  0  0  0  0  0  0
   10.6931   50.1990   39.0412 C   0  0  0  0  0  0  0  0  0  0  0  0
    9.7207   50.9551   36.9634 C   0  0  0  0  0  0  0  0  0  0  0  0
    9.4324   47.0048   40.1383 O   0  0  0  0  0  1  0  0  0  0  0  0
   11.4647   47.9152   40.5205 O   0  0  0  0  0  0  0  0  0  0  0  0
   10.4448   51.2202   38.1236 C   0  0  0  0  0  0  0  0  0  0  0  0
    8.8078   40.1913   34.2085 O   0  0  0  0  0  0  0  0  0  0  0  0
   11.2370   40.7908   33.3661 O   0  0  0  0  0  0  0  0  0  0  0  0
   10.9140   40.6850   31.9933 C   0  0  0  0  0  0  0  0  0  0  0  0
   11.5165   39.3774   31.4395 C   0  0  0  0  0  0  0  0  0  0  0  0
   12.7471   39.0855   32.0740 O   0  0  0  0  0  0  0  0  0  0  0  0
   10.6047   38.1867   31.6670 C   0  0  0  0  0  0  0  0  0  0  0  0
   12.9345   37.6791   32.0282 C   0  0  0  0  0  0  0  0  0  0  0  0
    9.6378   38.0917   30.6489 O   0  0  0  0  0  0  0  0  0  0  0  0
   11.5761   37.0129   31.7057 C   0  0  0  0  0  0  0  0  0  0  0  0
   13.4909   37.2177   33.3234 N   0  0  0  0  0  0  0  0  0  0  0  0
   11.6234   36.3372   30.4684 O   0  0  0  0  0  0  0  0  0  0  0  0
   14.4765   36.3272   33.5727 C   0  0  0  0  0  0  0  0  0  0  0  0
   13.1182   37.6316   34.5686 C   0  0  0  0  0  0  0  0  0  0  0  0
   15.2066   35.6138   32.6739 N   0  0  0  0  0  0  0  0  0  0  0  0
   14.6736   36.2276   34.9182 C   0  0  0  0  0  0  0  0  0  0  0  0
   13.8227   37.0457   35.5781 N   0  0  0  0  0  0  0  0  0  0  0  0
   16.1638   34.7593   33.1548 C   0  0  0  0  0  0  0  0  0  0  0  0
   15.6517   35.3492   35.4131 C   0  0  0  0  0  0  0  0  0  0  0  0
   16.3792   34.6309   34.5043 N   0  0  0  0  0  0  0  0  0  0  0  0
   15.9002   35.1934   36.8090 N   0  0  0  0  0  0  0  0  0  0  0  0
    9.8488   44.9838   32.1445 H   0  0  0  0  0  0  0  0  0  0  0  0
   10.8514   46.9477   33.0183 H   0  0  0  0  0  0  0  0  0  0  0  0
   11.1646   46.2259   34.5087 H   0  0  0  0  0  0  0  0  0  0  0  0
    7.7910   44.9826   33.4825 H   0  0  0  0  0  0  0  0  0  0  0  0
    8.4132   46.6485   33.3299 H   0  0  0  0  0  0  0  0  0  0  0  0
    8.0538   47.0578   37.7069 H   0  0  0  0  0  0  0  0  0  0  0  0
    9.7662   46.4615   37.6933 H   0  0  0  0  0  0  0  0  0  0  0  0
    8.7022   49.4868   35.7943 H   0  0  0  0  0  0  0  0  0  0  0  0
   11.2304   50.4330   39.9516 H   0  0  0  0  0  0  0  0  0  0  0  0
    9.5156   51.7527   36.2610 H   0  0  0  0  0  0  0  0  0  0  0  0
   10.8014   52.2230   38.3208 H   0  0  0  0  0  0  0  0  0  0  0  0
    9.8240   40.7211   31.7569 H   0  0  0  0  0  0  0  0  0  0  0  0
   11.3867   41.5416   31.4669 H   0  0  0  0  0  0  0  0  0  0  0  0
   11.6986   39.5014   30.3469 H   0  0  0  0  0  0  0  0  0  0  0  0
   10.1095   38.2770   32.6629 H   0  0  0  0  0  0  0  0  0  0  0  0
   13.6672   37.4546   31.2213 H   0  0  0  0  0  0  0  0  0  0  0  0
    8.9779   37.4157   30.9533 H   0  0  0  0  0  0  0  0  0  0  0  0
   11.2861   36.3041   32.5177 H   0  0  0  0  0  0  0  0  0  0  0  0
   10.8690   35.6918   30.4657 H   0  0  0  0  0  0  0  0  0  0  0  0
   12.3356   38.3587   34.7440 H   0  0  0  0  0  0  0  0  0  0  0  0
   16.7572   34.1786   32.4621 H   0  0  0  0  0  0  0  0  0  0  0  0
   15.3530   35.7358   37.5138 H   0  0  0  0  0  0  0  0  0  0  0  0
   16.6361   34.5315   37.1415 H   0  0  0  0  0  0  0  0  0  0  0  0
  1  2  2  0
  1  3  1  0
  3  4  1  0
  4  5  1  0
  6  1  1  0
  7  6  1  0
  6  8  1  0
  8  9  1  0
  9 10  1  0
  9 11  2  0
 10 12  1  0
 12 13  1  0
 13 14  2  0
 15 13  1  0
 14 16  1  0
 14 17  1  0
 18 15  2  0
 16 19  1  0
 16 20  2  0
 17 21  2  0
 21 18  1  0
  4 22  2  0
  4 23  1  0
 24 23  1  0
 24 25  1  0
 25 26  1  0
 25 27  1  0
 26 28  1  0
 27 29  1  0
 27 30  1  0
 30 28  1  0
 28 31  1  0
 30 32  1  0
 33 31  1  0
 34 31  1  0
 35 33  2  0
 33 36  1  0
 37 34  2  0
 38 35  1  0
 36 39  2  0
 36 37  1  0
 40 38  2  0
 40 39  1  0
 39 41  1  0
  6 42  1  6
  7 43  1  0
  7 44  1  0
  8 45  1  0
  8 46  1  0
 12 47  1  0
 12 48  1  0
 15 49  1  0
 17 50  1  0
 18 51  1  0
 21 52  1  0
 24 53  1  0
 24 54  1  0
 25 55  1  0
 27 56  1  0
 28 57  1  0
 29 58  1  0
 30 59  1  0
 32 60  1  0
 34 61  1  0
 38 62  1  0
 41 63  1  0
 41 64  1  0
M  CHG  3   5  -1  16   1  19  -1
M  END
>  <EmbedRMS>  (434) 
0.08889043518616425

$$$$

     RDKit          3D

 64 67  0  0  0  0  0  0  0  0999 V2000
   10.2867   43.7715   33.8030 C   0  0  0  0  0  0  0  0  0  0  0  0
   11.4106   43.5863   34.3556 O   0  0  0  0  0  0  0  0  0  0  0  0
    9.3672   42.7310   33.7003 O   0  0  0  0  0  0  0  0  0  0  0  0
    9.8851   41.2343   34.2851 P   0  0  0  0  0  5  0  0  0  0  0  0
   10.3658   41.4692   35.8749 O   0  0  0  0  0  1  0  0  0  0  0  0
    9.9562   45.1133   33.2473 C   0  0  2  0  0  0  0  0  0  0  0  0
   11.0673   46.0366   33.4850 N   0  0  0  0  0  0  0  0  0  0  0  0
    8.6485   45.6629   33.8546 C   0  0  0  0  0  0  0  0  0  0  0  0
    8.7599   45.9365   35.3268 C   0  0  0  0  0  0  0  0  0  0  0  0
    8.9244   44.8701   36.2147 O   0  0  0  0  0  0  0  0  0  0  0  0
    8.7045   47.1231   35.7508 O   0  0  0  0  0  0  0  0  0  0  0  0
    8.9391   45.0335   37.6281 C   0  0  0  0  0  0  0  0  0  0  0  0
    9.2934   43.7194   38.2712 C   0  0  0  0  0  0  0  0  0  0  0  0
   10.6336   43.3548   38.5683 C   0  0  0  0  0  0  0  0  0  0  0  0
    8.2543   42.8176   38.5617 C   0  0  0  0  0  0  0  0  0  0  0  0
   11.7445   44.2060   38.2334 N   0  0  0  0  0  4  0  0  0  0  0  0
   10.8821   42.1235   39.2027 C   0  0  0  0  0  0  0  0  0  0  0  0
    8.5247   41.5932   39.1738 C   0  0  0  0  0  0  0  0  0  0  0  0
   11.7787   44.8713   37.0301 O   0  0  0  0  0  1  0  0  0  0  0  0
   12.7678   44.2087   38.9487 O   0  0  0  0  0  0  0  0  0  0  0  0
    9.8351   41.2502   39.5008 C   0  0  0  0  0  0  0  0  0  0  0  0
    8.8078   40.1913   34.2090 O   0  0  0  0  0  0  0  0  0  0  0  0
   11.2377   40.7904   33.3702 O   0  0  0  0  0  0  0  0  0  0  0  0
   10.9186   40.6905   31.9966 C   0  0  0  0  0  0  0  0  0  0  0  0
   11.5174   39.3825   31.4414 C   0  0  0  0  0  0  0  0  0  0  0  0
   12.7494   39.0894   32.0757 O   0  0  0  0  0  0  0  0  0  0  0  0
   10.6035   38.1900   31.6660 C   0  0  0  0  0  0  0  0  0  0  0  0
   12.9400   37.6835   32.0277 C   0  0  0  0  0  0  0  0  0  0  0  0
    9.6376   38.0785   30.6475 O   0  0  0  0  0  0  0  0  0  0  0  0
   11.5803   37.0204   31.6937 C   0  0  0  0  0  0  0  0  0  0  0  0
   13.4901   37.2178   33.3238 N   0  0  0  0  0  0  0  0  0  0  0  0
   11.6118   36.3194   30.4681 O   0  0  0  0  0  0  0  0  0  0  0  0
   14.4758   36.3272   33.5732 C   0  0  0  0  0  0  0  0  0  0  0  0
   13.1175   37.6319   34.5689 C   0  0  0  0  0  0  0  0  0  0  0  0
   15.2063   35.6142   32.6742 N   0  0  0  0  0  0  0  0  0  0  0  0
   14.6729   36.2275   34.9185 C   0  0  0  0  0  0  0  0  0  0  0  0
   13.8221   37.0458   35.5784 N   0  0  0  0  0  0  0  0  0  0  0  0
   16.1636   34.7597   33.1549 C   0  0  0  0  0  0  0  0  0  0  0  0
   15.6513   35.3493   35.4133 C   0  0  0  0  0  0  0  0  0  0  0  0
   16.3790   34.6312   34.5044 N   0  0  0  0  0  0  0  0  0  0  0  0
   15.9001   35.1935   36.8091 N   0  0  0  0  0  0  0  0  0  0  0  0
    9.8061   44.9991   32.1501 H   0  0  0  0  0  0  0  0  0  0  0  0
   11.8872   45.7208   32.9160 H   0  0  0  0  0  0  0  0  0  0  0  0
   10.8056   46.9743   33.1022 H   0  0  0  0  0  0  0  0  0  0  0  0
    8.3684   46.5992   33.3237 H   0  0  0  0  0  0  0  0  0  0  0  0
    7.8213   44.9399   33.6865 H   0  0  0  0  0  0  0  0  0  0  0  0
    9.6588   45.8254   37.9251 H   0  0  0  0  0  0  0  0  0  0  0  0
    7.9349   45.3695   37.9677 H   0  0  0  0  0  0  0  0  0  0  0  0
    7.2283   43.0671   38.3196 H   0  0  0  0  0  0  0  0  0  0  0  0
   11.8949   41.8271   39.4447 H   0  0  0  0  0  0  0  0  0  0  0  0
    7.7155   40.9102   39.3977 H   0  0  0  0  0  0  0  0  0  0  0  0
   10.0420   40.3008   39.9776 H   0  0  0  0  0  0  0  0  0  0  0  0
   11.3994   41.5456   31.4753 H   0  0  0  0  0  0  0  0  0  0  0  0
    9.8307   40.7396   31.7566 H   0  0  0  0  0  0  0  0  0  0  0  0
   11.6987   39.5095   30.3492 H   0  0  0  0  0  0  0  0  0  0  0  0
   10.1129   38.2588   32.6665 H   0  0  0  0  0  0  0  0  0  0  0  0
   13.6800   37.4629   31.2266 H   0  0  0  0  0  0  0  0  0  0  0  0
    8.8952   38.6908   30.8892 H   0  0  0  0  0  0  0  0  0  0  0  0
   11.2830   36.3060   32.4930 H   0  0  0  0  0  0  0  0  0  0  0  0
   11.8859   36.9590   29.7593 H   0  0  0  0  0  0  0  0  0  0  0  0
   12.3361   38.3602   34.7443 H   0  0  0  0  0  0  0  0  0  0  0  0
   16.7572   34.1793   32.4621 H   0  0  0  0  0  0  0  0  0  0  0  0
   16.6362   34.5318   37.1416 H   0  0  0  0  0  0  0  0  0  0  0  0
   15.3528   35.7357   37.5140 H   0  0  0  0  0  0  0  0  0  0  0  0
  1  2  2  0
  1  3  1  0
  3  4  1  0
  4  5  1  0
  6  1  1  0
  7  6  1  0
  6  8  1  0
  8  9  1  0
  9 10  1  0
  9 11  2  0
 10 12  1  0
 12 13  1  0
 13 14  2  0
 15 13  1  0
 14 16  1  0
 14 17  1  0
 18 15  2  0
 16 19  1  0
 16 20  2  0
 17 21  2  0
 21 18  1  0
  4 22  2  0
  4 23  1  0
 24 23  1  0
 24 25  1  0
 25 26  1  0
 25 27  1  0
 26 28  1  0
 27 29  1  0
 27 30  1  0
 30 28  1  0
 28 31  1  0
 30 32  1  0
 33 31  1  0
 34 31  1  0
 35 33  2  0
 33 36  1  0
 37 34  2  0
 38 35  1  0
 36 39  2  0
 36 37  1  0
 40 38  2  0
 40 39  1  0
 39 41  1  0
  6 42  1  6
  7 43  1  0
  7 44  1  0
  8 45  1  0
  8 46  1  0
 12 47  1  0
 12 48  1  0
 15 49  1  0
 17 50  1  0
 18 51  1  0
 21 52  1  0
 24 53  1  0
 24 54  1  0
 25 55  1  0
 27 56  1  0
 28 57  1  0
 29 58  1  0
 30 59  1  0
 32 60  1  0
 34 61  1  0
 38 62  1  0
 41 63  1  0
 41 64  1  0
M  CHG  3   5  -1  16   1  19  -1
M  END
>  <EmbedRMS>  (435) 
0.08828284150781429

$$$$

     RDKit          3D

 64 67  0  0  0  0  0  0  0  0999 V2000
   10.2844   43.7742   33.8067 C   0  0  0  0  0  0  0  0  0  0  0  0
   11.4068   43.5903   34.3635 O   0  0  0  0  0  0  0  0  0  0  0  0
    9.3680   42.7310   33.6986 O   0  0  0  0  0  0  0  0  0  0  0  0
    9.8859   41.2341   34.2835 P   0  0  0  0  0  5  0  0  0  0  0  0
   10.3663   41.4697   35.8740 O   0  0  0  0  0  1  0  0  0  0  0  0
    9.9490   45.1165   33.2549 C   0  0  2  0  0  0  0  0  0  0  0  0
   11.0755   46.0280   33.4732 N   0  0  0  0  0  0  0  0  0  0  0  0
    8.6782   45.6534   33.9431 C   0  0  0  0  0  0  0  0  0  0  0  0
    8.1798   46.9038   33.2869 C   0  0  0  0  0  0  0  0  0  0  0  0
    8.4935   48.1456   33.8458 O   0  0  0  0  0  0  0  0  0  0  0  0
    7.5097   46.8280   32.2209 O   0  0  0  0  0  0  0  0  0  0  0  0
    8.0826   49.3793   33.2616 C   0  0  0  0  0  0  0  0  0  0  0  0
    8.5583   50.5553   34.0852 C   0  0  0  0  0  0  0  0  0  0  0  0
    8.7871   51.8292   33.4974 C   0  0  0  0  0  0  0  0  0  0  0  0
    8.7518   50.3996   35.4726 C   0  0  0  0  0  0  0  0  0  0  0  0
    8.5127   52.0864   32.1089 N   0  0  0  0  0  4  0  0  0  0  0  0
    9.2856   52.8744   34.2947 C   0  0  0  0  0  0  0  0  0  0  0  0
    9.2281   51.4567   36.2493 C   0  0  0  0  0  0  0  0  0  0  0  0
    9.2624   53.0129   31.4213 O   0  0  0  0  0  1  0  0  0  0  0  0
    7.4826   51.6297   31.5718 O   0  0  0  0  0  0  0  0  0  0  0  0
    9.5059   52.6877   35.6595 C   0  0  0  0  0  0  0  0  0  0  0  0
    8.8082   40.1914   34.2081 O   0  0  0  0  0  0  0  0  0  0  0  0
   11.2374   40.7899   33.3677 O   0  0  0  0  0  0  0  0  0  0  0  0
   10.9156   40.6881   31.9946 C   0  0  0  0  0  0  0  0  0  0  0  0
   11.5262   39.3870   31.4363 C   0  0  0  0  0  0  0  0  0  0  0  0
   12.7492   39.0892   32.0818 O   0  0  0  0  0  0  0  0  0  0  0  0
   10.6123   38.1893   31.6461 C   0  0  0  0  0  0  0  0  0  0  0  0
   12.9374   37.6826   32.0301 C   0  0  0  0  0  0  0  0  0  0  0  0
    9.6150   38.0838   30.6538 O   0  0  0  0  0  0  0  0  0  0  0  0
   11.5793   37.0136   31.7014 C   0  0  0  0  0  0  0  0  0  0  0  0
   13.4907   37.2169   33.3242 N   0  0  0  0  0  0  0  0  0  0  0  0
   11.6216   36.3252   30.4725 O   0  0  0  0  0  0  0  0  0  0  0  0
   14.4763   36.3266   33.5731 C   0  0  0  0  0  0  0  0  0  0  0  0
   13.1182   37.6308   34.5694 C   0  0  0  0  0  0  0  0  0  0  0  0
   15.2066   35.6137   32.6740 N   0  0  0  0  0  0  0  0  0  0  0  0
   14.6736   36.2270   34.9185 C   0  0  0  0  0  0  0  0  0  0  0  0
   13.8229   37.0451   35.5787 N   0  0  0  0  0  0  0  0  0  0  0  0
   16.1639   34.7593   33.1547 C   0  0  0  0  0  0  0  0  0  0  0  0
   15.6519   35.3489   35.4132 C   0  0  0  0  0  0  0  0  0  0  0  0
   16.3795   34.6308   34.5042 N   0  0  0  0  0  0  0  0  0  0  0  0
   15.9006   35.1931   36.8090 N   0  0  0  0  0  0  0  0  0  0  0  0
    9.7629   45.0053   32.1624 H   0  0  0  0  0  0  0  0  0  0  0  0
   11.8957   45.6762   32.9262 H   0  0  0  0  0  0  0  0  0  0  0  0
   10.8467   46.9549   33.0474 H   0  0  0  0  0  0  0  0  0  0  0  0
    7.8676   44.8932   33.8966 H   0  0  0  0  0  0  0  0  0  0  0  0
    8.8870   45.8574   35.0163 H   0  0  0  0  0  0  0  0  0  0  0  0
    6.9737   49.4098   33.1973 H   0  0  0  0  0  0  0  0  0  0  0  0
    8.5125   49.4326   32.2384 H   0  0  0  0  0  0  0  0  0  0  0  0
    8.5446   49.4550   35.9594 H   0  0  0  0  0  0  0  0  0  0  0  0
    9.4784   53.8483   33.8628 H   0  0  0  0  0  0  0  0  0  0  0  0
    9.3845   51.3194   37.3116 H   0  0  0  0  0  0  0  0  0  0  0  0
    9.8782   53.5047   36.2641 H   0  0  0  0  0  0  0  0  0  0  0  0
    9.8254   40.7180   31.7578 H   0  0  0  0  0  0  0  0  0  0  0  0
   11.3829   41.5502   31.4724 H   0  0  0  0  0  0  0  0  0  0  0  0
   11.7292   39.5285   30.3502 H   0  0  0  0  0  0  0  0  0  0  0  0
   10.1140   38.2719   32.6379 H   0  0  0  0  0  0  0  0  0  0  0  0
   13.6726   37.4635   31.2240 H   0  0  0  0  0  0  0  0  0  0  0  0
   10.0535   38.1084   29.7638 H   0  0  0  0  0  0  0  0  0  0  0  0
   11.2646   36.3134   32.5107 H   0  0  0  0  0  0  0  0  0  0  0  0
   12.1549   35.5031   30.6316 H   0  0  0  0  0  0  0  0  0  0  0  0
   12.3362   38.3586   34.7450 H   0  0  0  0  0  0  0  0  0  0  0  0
   16.7574   34.1788   32.4619 H   0  0  0  0  0  0  0  0  0  0  0  0
   15.3533   35.7353   37.5139 H   0  0  0  0  0  0  0  0  0  0  0  0
   16.6366   34.5314   37.1415 H   0  0  0  0  0  0  0  0  0  0  0  0
  1  2  2  0
  1  3  1  0
  3  4  1  0
  4  5  1  0
  6  1  1  0
  7  6  1  0
  6  8  1  0
  8  9  1  0
  9 10  1  0
  9 11  2  0
 10 12  1  0
 12 13  1  0
 13 14  2  0
 15 13  1  0
 14 16  1  0
 14 17  1  0
 18 15  2  0
 16 19  1  0
 16 20  2  0
 17 21  2  0
 21 18  1  0
  4 22  2  0
  4 23  1  0
 24 23  1  0
 24 25  1  0
 25 26  1  0
 25 27  1  0
 26 28  1  0
 27 29  1  0
 27 30  1  0
 30 28  1  0
 28 31  1  0
 30 32  1  0
 33 31  1  0
 34 31  1  0
 35 33  2  0
 33 36  1  0
 37 34  2  0
 38 35  1  0
 36 39  2  0
 36 37  1  0
 40 38  2  0
 40 39  1  0
 39 41  1  0
  6 42  1  6
  7 43  1  0
  7 44  1  0
  8 45  1  0
  8 46  1  0
 12 47  1  0
 12 48  1  0
 15 49  1  0
 17 50  1  0
 18 51  1  0
 21 52  1  0
 24 53  1  0
 24 54  1  0
 25 55  1  0
 27 56  1  0
 28 57  1  0
 29 58  1  0
 30 59  1  0
 32 60  1  0
 34 61  1  0
 38 62  1  0
 41 63  1  0
 41 64  1  0
M  CHG  3   5  -1  16   1  19  -1
M  END
>  <EmbedRMS>  (436) 
0.08800739086590262

$$$$

     RDKit          3D

 64 67  0  0  0  0  0  0  0  0999 V2000
   10.2862   43.7718   33.8041 C   0  0  0  0  0  0  0  0  0  0  0  0
   11.4086   43.5883   34.3608 O   0  0  0  0  0  0  0  0  0  0  0  0
    9.3675   42.7308   33.6990 O   0  0  0  0  0  0  0  0  0  0  0  0
    9.8853   41.2341   34.2840 P   0  0  0  0  0  5  0  0  0  0  0  0
   10.3657   41.4703   35.8744 O   0  0  0  0  0  1  0  0  0  0  0  0
    9.9530   45.1149   33.2534 C   0  0  2  0  0  0  0  0  0  0  0  0
   11.0711   46.0334   33.4771 N   0  0  0  0  0  0  0  0  0  0  0  0
    8.6603   45.6655   33.8891 C   0  0  0  0  0  0  0  0  0  0  0  0
    8.7920   45.8595   35.3705 C   0  0  0  0  0  0  0  0  0  0  0  0
    9.3431   47.0478   35.8621 O   0  0  0  0  0  0  0  0  0  0  0  0
    8.4379   44.9385   36.1556 O   0  0  0  0  0  0  0  0  0  0  0  0
    9.5432   47.3073   37.2509 C   0  0  0  0  0  0  0  0  0  0  0  0
    8.2210   47.4702   37.9659 C   0  0  0  0  0  0  0  0  0  0  0  0
    7.9104   46.7862   39.1703 C   0  0  0  0  0  0  0  0  0  0  0  0
    7.3090   48.4148   37.4609 C   0  0  0  0  0  0  0  0  0  0  0  0
    8.7951   45.8067   39.7340 N   0  0  0  0  0  4  0  0  0  0  0  0
    6.7046   47.0731   39.8334 C   0  0  0  0  0  0  0  0  0  0  0  0
    6.1086   48.6735   38.1243 C   0  0  0  0  0  0  0  0  0  0  0  0
    9.1883   44.7234   38.9834 O   0  0  0  0  0  1  0  0  0  0  0  0
    9.0009   45.7924   40.9651 O   0  0  0  0  0  0  0  0  0  0  0  0
    5.8083   48.0061   39.3103 C   0  0  0  0  0  0  0  0  0  0  0  0
    8.8076   40.1914   34.2087 O   0  0  0  0  0  0  0  0  0  0  0  0
   11.2370   40.7897   33.3682 O   0  0  0  0  0  0  0  0  0  0  0  0
   10.9154   40.6881   31.9950 C   0  0  0  0  0  0  0  0  0  0  0  0
   11.5261   39.3871   31.4365 C   0  0  0  0  0  0  0  0  0  0  0  0
   12.7492   39.0893   32.0819 O   0  0  0  0  0  0  0  0  0  0  0  0
   10.6123   38.1893   31.6461 C   0  0  0  0  0  0  0  0  0  0  0  0
   12.9373   37.6827   32.0301 C   0  0  0  0  0  0  0  0  0  0  0  0
    9.6150   38.0839   30.6538 O   0  0  0  0  0  0  0  0  0  0  0  0
   11.5793   37.0136   31.7014 C   0  0  0  0  0  0  0  0  0  0  0  0
   13.4906   37.2169   33.3242 N   0  0  0  0  0  0  0  0  0  0  0  0
   11.6216   36.3252   30.4725 O   0  0  0  0  0  0  0  0  0  0  0  0
   14.4763   36.3266   33.5731 C   0  0  0  0  0  0  0  0  0  0  0  0
   13.1182   37.6308   34.5694 C   0  0  0  0  0  0  0  0  0  0  0  0
   15.2065   35.6137   32.6740 N   0  0  0  0  0  0  0  0  0  0  0  0
   14.6736   36.2270   34.9185 C   0  0  0  0  0  0  0  0  0  0  0  0
   13.8229   37.0451   35.5787 N   0  0  0  0  0  0  0  0  0  0  0  0
   16.1639   34.7593   33.1547 C   0  0  0  0  0  0  0  0  0  0  0  0
   15.6519   35.3489   35.4132 C   0  0  0  0  0  0  0  0  0  0  0  0
   16.3795   34.6308   34.5042 N   0  0  0  0  0  0  0  0  0  0  0  0
   15.9006   35.1931   36.8090 N   0  0  0  0  0  0  0  0  0  0  0  0
    9.7834   45.0058   32.1585 H   0  0  0  0  0  0  0  0  0  0  0  0
   11.8826   45.7129   32.8990 H   0  0  0  0  0  0  0  0  0  0  0  0
   10.8098   46.9718   33.0957 H   0  0  0  0  0  0  0  0  0  0  0  0
    8.4053   46.6406   33.4208 H   0  0  0  0  0  0  0  0  0  0  0  0
    7.8135   44.9760   33.6777 H   0  0  0  0  0  0  0  0  0  0  0  0
   10.1843   46.5162   37.6849 H   0  0  0  0  0  0  0  0  0  0  0  0
   10.1084   48.2578   37.3495 H   0  0  0  0  0  0  0  0  0  0  0  0
    7.5347   48.9622   36.5537 H   0  0  0  0  0  0  0  0  0  0  0  0
    6.4526   46.5592   40.7527 H   0  0  0  0  0  0  0  0  0  0  0  0
    5.4150   49.4012   37.7232 H   0  0  0  0  0  0  0  0  0  0  0  0
    4.8795   48.2123   39.8263 H   0  0  0  0  0  0  0  0  0  0  0  0
   11.3828   41.5503   31.4730 H   0  0  0  0  0  0  0  0  0  0  0  0
    9.8252   40.7180   31.7581 H   0  0  0  0  0  0  0  0  0  0  0  0
   11.7290   39.5287   30.3504 H   0  0  0  0  0  0  0  0  0  0  0  0
   10.1139   38.2718   32.6380 H   0  0  0  0  0  0  0  0  0  0  0  0
   13.6726   37.4636   31.2240 H   0  0  0  0  0  0  0  0  0  0  0  0
   10.0536   38.1085   29.7639 H   0  0  0  0  0  0  0  0  0  0  0  0
   11.2646   36.3134   32.5107 H   0  0  0  0  0  0  0  0  0  0  0  0
   12.1549   35.5032   30.6315 H   0  0  0  0  0  0  0  0  0  0  0  0
   12.3362   38.3586   34.7450 H   0  0  0  0  0  0  0  0  0  0  0  0
   16.7573   34.1788   32.4619 H   0  0  0  0  0  0  0  0  0  0  0  0
   16.6366   34.5314   37.1415 H   0  0  0  0  0  0  0  0  0  0  0  0
   15.3533   35.7353   37.5139 H   0  0  0  0  0  0  0  0  0  0  0  0
  1  2  2  0
  1  3  1  0
  3  4  1  0
  4  5  1  0
  6  1  1  0
  7  6  1  0
  6  8  1  0
  8  9  1  0
  9 10  1  0
  9 11  2  0
 10 12  1  0
 12 13  1  0
 13 14  2  0
 15 13  1  0
 14 16  1  0
 14 17  1  0
 18 15  2  0
 16 19  1  0
 16 20  2  0
 17 21  2  0
 21 18  1  0
  4 22  2  0
  4 23  1  0
 24 23  1  0
 24 25  1  0
 25 26  1  0
 25 27  1  0
 26 28  1  0
 27 29  1  0
 27 30  1  0
 30 28  1  0
 28 31  1  0
 30 32  1  0
 33 31  1  0
 34 31  1  0
 35 33  2  0
 33 36  1  0
 37 34  2  0
 38 35  1  0
 36 39  2  0
 36 37  1  0
 40 38  2  0
 40 39  1  0
 39 41  1  0
  6 42  1  6
  7 43  1  0
  7 44  1  0
  8 45  1  0
  8 46  1  0
 12 47  1  0
 12 48  1  0
 15 49  1  0
 17 50  1  0
 18 51  1  0
 21 52  1  0
 24 53  1  0
 24 54  1  0
 25 55  1  0
 27 56  1  0
 28 57  1  0
 29 58  1  0
 30 59  1  0
 32 60  1  0
 34 61  1  0
 38 62  1  0
 41 63  1  0
 41 64  1  0
M  CHG  3   5  -1  16   1  19  -1
M  END
>  <EmbedRMS>  (437) 
0.08792585445776056

$$$$

     RDKit          3D

 64 67  0  0  0  0  0  0  0  0999 V2000
   10.2796   43.7760   33.8112 C   0  0  0  0  0  0  0  0  0  0  0  0
   11.4031   43.5917   34.3662 O   0  0  0  0  0  0  0  0  0  0  0  0
    9.3673   42.7299   33.6991 O   0  0  0  0  0  0  0  0  0  0  0  0
    9.8867   41.2337   34.2835 P   0  0  0  0  0  5  0  0  0  0  0  0
   10.3656   41.4693   35.8745 O   0  0  0  0  0  1  0  0  0  0  0  0
    9.9466   45.1220   33.2590 C   0  0  2  0  0  0  0  0  0  0  0  0
   11.0824   46.0223   33.4651 N   0  0  0  0  0  0  0  0  0  0  0  0
    8.6973   45.7112   33.9499 C   0  0  0  0  0  0  0  0  0  0  0  0
    7.4395   44.9531   33.6431 C   0  0  0  0  0  0  0  0  0  0  0  0
    6.5802   44.6053   34.6889 O   0  0  0  0  0  0  0  0  0  0  0  0
    7.1402   44.6801   32.4481 O   0  0  0  0  0  0  0  0  0  0  0  0
    5.3643   43.8922   34.4839 C   0  0  0  0  0  0  0  0  0  0  0  0
    4.6305   43.7489   35.7951 C   0  0  0  0  0  0  0  0  0  0  0  0
    5.2332   43.1589   36.9403 C   0  0  0  0  0  0  0  0  0  0  0  0
    3.3211   44.2561   35.8947 C   0  0  0  0  0  0  0  0  0  0  0  0
    6.5603   42.6042   36.9049 N   0  0  0  0  0  4  0  0  0  0  0  0
    4.5183   43.1275   38.1508 C   0  0  0  0  0  0  0  0  0  0  0  0
    2.6240   44.1988   37.1020 C   0  0  0  0  0  0  0  0  0  0  0  0
    7.3394   42.6120   38.0391 O   0  0  0  0  0  1  0  0  0  0  0  0
    6.9548   41.9609   35.9118 O   0  0  0  0  0  0  0  0  0  0  0  0
    3.2231   43.6403   38.2289 C   0  0  0  0  0  0  0  0  0  0  0  0
    8.8104   40.1896   34.2065 O   0  0  0  0  0  0  0  0  0  0  0  0
   11.2386   40.7915   33.3680 O   0  0  0  0  0  0  0  0  0  0  0  0
   10.9161   40.6899   31.9953 C   0  0  0  0  0  0  0  0  0  0  0  0
   11.5272   39.3897   31.4371 C   0  0  0  0  0  0  0  0  0  0  0  0
   12.7509   39.0915   32.0837 O   0  0  0  0  0  0  0  0  0  0  0  0
   10.6122   38.1917   31.6452 C   0  0  0  0  0  0  0  0  0  0  0  0
   12.9429   37.6851   32.0295 C   0  0  0  0  0  0  0  0  0  0  0  0
    9.6069   38.0859   30.6604 O   0  0  0  0  0  0  0  0  0  0  0  0
   11.5844   37.0186   31.6880 C   0  0  0  0  0  0  0  0  0  0  0  0
   13.4898   37.2163   33.3250 N   0  0  0  0  0  0  0  0  0  0  0  0
   11.6200   36.3062   30.4693 O   0  0  0  0  0  0  0  0  0  0  0  0
   14.4759   36.3263   33.5739 C   0  0  0  0  0  0  0  0  0  0  0  0
   13.1175   37.6307   34.5699 C   0  0  0  0  0  0  0  0  0  0  0  0
   15.2065   35.6139   32.6746 N   0  0  0  0  0  0  0  0  0  0  0  0
   14.6731   36.2267   34.9191 C   0  0  0  0  0  0  0  0  0  0  0  0
   13.8224   37.0450   35.5792 N   0  0  0  0  0  0  0  0  0  0  0  0
   16.1640   34.7596   33.1551 C   0  0  0  0  0  0  0  0  0  0  0  0
   15.6517   35.3489   35.4136 C   0  0  0  0  0  0  0  0  0  0  0  0
   16.3795   34.6310   34.5046 N   0  0  0  0  0  0  0  0  0  0  0  0
   15.9006   35.1931   36.8094 N   0  0  0  0  0  0  0  0  0  0  0  0
    9.7567   45.0224   32.1663 H   0  0  0  0  0  0  0  0  0  0  0  0
   11.8861   45.6779   32.8895 H   0  0  0  0  0  0  0  0  0  0  0  0
   10.8416   46.9593   33.0668 H   0  0  0  0  0  0  0  0  0  0  0  0
    8.8568   45.7354   35.0505 H   0  0  0  0  0  0  0  0  0  0  0  0
    8.5453   46.7589   33.6124 H   0  0  0  0  0  0  0  0  0  0  0  0
    5.5744   42.8893   34.0561 H   0  0  0  0  0  0  0  0  0  0  0  0
    4.7446   44.4434   33.7425 H   0  0  0  0  0  0  0  0  0  0  0  0
    2.8379   44.7085   35.0374 H   0  0  0  0  0  0  0  0  0  0  0  0
    4.9596   42.6872   39.0359 H   0  0  0  0  0  0  0  0  0  0  0  0
    1.6188   44.5952   37.1653 H   0  0  0  0  0  0  0  0  0  0  0  0
    2.6815   43.6013   39.1653 H   0  0  0  0  0  0  0  0  0  0  0  0
   11.3829   41.5524   31.4731 H   0  0  0  0  0  0  0  0  0  0  0  0
    9.8259   40.7194   31.7584 H   0  0  0  0  0  0  0  0  0  0  0  0
   11.7321   39.5334   30.3517 H   0  0  0  0  0  0  0  0  0  0  0  0
   10.1216   38.2685   32.6413 H   0  0  0  0  0  0  0  0  0  0  0  0
   13.6882   37.4705   31.2319 H   0  0  0  0  0  0  0  0  0  0  0  0
   10.0255   38.1751   29.7657 H   0  0  0  0  0  0  0  0  0  0  0  0
   11.2794   36.3124   32.4916 H   0  0  0  0  0  0  0  0  0  0  0  0
   11.9870   36.9099   29.7715 H   0  0  0  0  0  0  0  0  0  0  0  0
   12.3365   38.3595   34.7453 H   0  0  0  0  0  0  0  0  0  0  0  0
   16.7577   34.1794   32.4622 H   0  0  0  0  0  0  0  0  0  0  0  0
   16.6368   34.5316   37.1418 H   0  0  0  0  0  0  0  0  0  0  0  0
   15.3532   35.7351   37.5144 H   0  0  0  0  0  0  0  0  0  0  0  0
  1  2  2  0
  1  3  1  0
  3  4  1  0
  4  5  1  0
  6  1  1  0
  7  6  1  0
  6  8  1  0
  8  9  1  0
  9 10  1  0
  9 11  2  0
 10 12  1  0
 12 13  1  0
 13 14  2  0
 15 13  1  0
 14 16  1  0
 14 17  1  0
 18 15  2  0
 16 19  1  0
 16 20  2  0
 17 21  2  0
 21 18  1  0
  4 22  2  0
  4 23  1  0
 24 23  1  0
 24 25  1  0
 25 26  1  0
 25 27  1  0
 26 28  1  0
 27 29  1  0
 27 30  1  0
 30 28  1  0
 28 31  1  0
 30 32  1  0
 33 31  1  0
 34 31  1  0
 35 33  2  0
 33 36  1  0
 37 34  2  0
 38 35  1  0
 36 39  2  0
 36 37  1  0
 40 38  2  0
 40 39  1  0
 39 41  1  0
  6 42  1  6
  7 43  1  0
  7 44  1  0
  8 45  1  0
  8 46  1  0
 12 47  1  0
 12 48  1  0
 15 49  1  0
 17 50  1  0
 18 51  1  0
 21 52  1  0
 24 53  1  0
 24 54  1  0
 25 55  1  0
 27 56  1  0
 28 57  1  0
 29 58  1  0
 30 59  1  0
 32 60  1  0
 34 61  1  0
 38 62  1  0
 41 63  1  0
 41 64  1  0
M  CHG  3   5  -1  16   1  19  -1
M  END
>  <EmbedRMS>  (438) 
0.08726371296744247

$$$$

     RDKit          3D

 64 67  0  0  0  0  0  0  0  0999 V2000
   10.2820   43.7752   33.8090 C   0  0  0  0  0  0  0  0  0  0  0  0
   11.4050   43.5915   34.3648 O   0  0  0  0  0  0  0  0  0  0  0  0
    9.3695   42.7292   33.6970 O   0  0  0  0  0  0  0  0  0  0  0  0
    9.8864   41.2337   34.2840 P   0  0  0  0  0  5  0  0  0  0  0  0
   10.3659   41.4702   35.8746 O   0  0  0  0  0  1  0  0  0  0  0  0
    9.9469   45.1210   33.2580 C   0  0  2  0  0  0  0  0  0  0  0  0
   11.0786   46.0250   33.4694 N   0  0  0  0  0  0  0  0  0  0  0  0
    8.6918   45.6998   33.9441 C   0  0  0  0  0  0  0  0  0  0  0  0
    7.4520   44.9342   33.5936 C   0  0  0  0  0  0  0  0  0  0  0  0
    7.0156   44.9024   32.2646 O   0  0  0  0  0  0  0  0  0  0  0  0
    6.8189   44.3192   34.4949 O   0  0  0  0  0  0  0  0  0  0  0  0
    5.8466   44.2028   31.8425 C   0  0  0  0  0  0  0  0  0  0  0  0
    4.5984   44.8765   32.3657 C   0  0  0  0  0  0  0  0  0  0  0  0
    4.3310   46.2560   32.1451 C   0  0  0  0  0  0  0  0  0  0  0  0
    3.6953   44.1162   33.1314 C   0  0  0  0  0  0  0  0  0  0  0  0
    5.2035   47.0893   31.3597 N   0  0  0  0  0  4  0  0  0  0  0  0
    3.1878   46.8320   32.7274 C   0  0  0  0  0  0  0  0  0  0  0  0
    2.5587   44.7055   33.6859 C   0  0  0  0  0  0  0  0  0  0  0  0
    5.2983   48.4344   31.6339 O   0  0  0  0  0  1  0  0  0  0  0  0
    5.7535   46.6479   30.3303 O   0  0  0  0  0  0  0  0  0  0  0  0
    2.3080   46.0615   33.4884 C   0  0  0  0  0  0  0  0  0  0  0  0
    8.8083   40.1913   34.2082 O   0  0  0  0  0  0  0  0  0  0  0  0
   11.2378   40.7896   33.3687 O   0  0  0  0  0  0  0  0  0  0  0  0
   10.9160   40.6896   31.9957 C   0  0  0  0  0  0  0  0  0  0  0  0
   11.5272   39.3897   31.4371 C   0  0  0  0  0  0  0  0  0  0  0  0
   12.7509   39.0914   32.0835 O   0  0  0  0  0  0  0  0  0  0  0  0
   10.6122   38.1916   31.6451 C   0  0  0  0  0  0  0  0  0  0  0  0
   12.9429   37.6851   32.0294 C   0  0  0  0  0  0  0  0  0  0  0  0
    9.6069   38.0858   30.6603 O   0  0  0  0  0  0  0  0  0  0  0  0
   11.5844   37.0185   31.6879 C   0  0  0  0  0  0  0  0  0  0  0  0
   13.4899   37.2163   33.3249 N   0  0  0  0  0  0  0  0  0  0  0  0
   11.6201   36.3062   30.4692 O   0  0  0  0  0  0  0  0  0  0  0  0
   14.4759   36.3263   33.5738 C   0  0  0  0  0  0  0  0  0  0  0  0
   13.1175   37.6307   34.5698 C   0  0  0  0  0  0  0  0  0  0  0  0
   15.2065   35.6139   32.6746 N   0  0  0  0  0  0  0  0  0  0  0  0
   14.6731   36.2267   34.9191 C   0  0  0  0  0  0  0  0  0  0  0  0
   13.8224   37.0450   35.5792 N   0  0  0  0  0  0  0  0  0  0  0  0
   16.1640   34.7596   33.1551 C   0  0  0  0  0  0  0  0  0  0  0  0
   15.6517   35.3489   35.4136 C   0  0  0  0  0  0  0  0  0  0  0  0
   16.3795   34.6310   34.5046 N   0  0  0  0  0  0  0  0  0  0  0  0
   15.9006   35.1931   36.8094 N   0  0  0  0  0  0  0  0  0  0  0  0
    9.7601   45.0221   32.1643 H   0  0  0  0  0  0  0  0  0  0  0  0
   10.8350   46.9620   33.0727 H   0  0  0  0  0  0  0  0  0  0  0  0
   11.8850   45.6851   32.8949 H   0  0  0  0  0  0  0  0  0  0  0  0
    8.5387   46.7501   33.6149 H   0  0  0  0  0  0  0  0  0  0  0  0
    8.8355   45.7136   35.0476 H   0  0  0  0  0  0  0  0  0  0  0  0
    5.9150   43.1446   32.1785 H   0  0  0  0  0  0  0  0  0  0  0  0
    5.8139   44.1780   30.7341 H   0  0  0  0  0  0  0  0  0  0  0  0
    3.8760   43.0638   33.3123 H   0  0  0  0  0  0  0  0  0  0  0  0
    2.9666   47.8812   32.5777 H   0  0  0  0  0  0  0  0  0  0  0  0
    1.8743   44.1100   34.2763 H   0  0  0  0  0  0  0  0  0  0  0  0
    1.4277   46.5170   33.9234 H   0  0  0  0  0  0  0  0  0  0  0  0
    9.8259   40.7192   31.7585 H   0  0  0  0  0  0  0  0  0  0  0  0
   11.3832   41.5525   31.4746 H   0  0  0  0  0  0  0  0  0  0  0  0
   11.7319   39.5336   30.3517 H   0  0  0  0  0  0  0  0  0  0  0  0
   10.1216   38.2684   32.6412 H   0  0  0  0  0  0  0  0  0  0  0  0
   13.6882   37.4704   31.2318 H   0  0  0  0  0  0  0  0  0  0  0  0
   10.0255   38.1751   29.7656 H   0  0  0  0  0  0  0  0  0  0  0  0
   11.2795   36.3123   32.4915 H   0  0  0  0  0  0  0  0  0  0  0  0
   11.9870   36.9098   29.7714 H   0  0  0  0  0  0  0  0  0  0  0  0
   12.3365   38.3595   34.7452 H   0  0  0  0  0  0  0  0  0  0  0  0
   16.7577   34.1794   32.4622 H   0  0  0  0  0  0  0  0  0  0  0  0
   16.6368   34.5316   37.1418 H   0  0  0  0  0  0  0  0  0  0  0  0
   15.3532   35.7351   37.5143 H   0  0  0  0  0  0  0  0  0  0  0  0
  1  2  2  0
  1  3  1  0
  3  4  1  0
  4  5  1  0
  6  1  1  0
  7  6  1  0
  6  8  1  0
  8  9  1  0
  9 10  1  0
  9 11  2  0
 10 12  1  0
 12 13  1  0
 13 14  2  0
 15 13  1  0
 14 16  1  0
 14 17  1  0
 18 15  2  0
 16 19  1  0
 16 20  2  0
 17 21  2  0
 21 18  1  0
  4 22  2  0
  4 23  1  0
 24 23  1  0
 24 25  1  0
 25 26  1  0
 25 27  1  0
 26 28  1  0
 27 29  1  0
 27 30  1  0
 30 28  1  0
 28 31  1  0
 30 32  1  0
 33 31  1  0
 34 31  1  0
 35 33  2  0
 33 36  1  0
 37 34  2  0
 38 35  1  0
 36 39  2  0
 36 37  1  0
 40 38  2  0
 40 39  1  0
 39 41  1  0
  6 42  1  6
  7 43  1  0
  7 44  1  0
  8 45  1  0
  8 46  1  0
 12 47  1  0
 12 48  1  0
 15 49  1  0
 17 50  1  0
 18 51  1  0
 21 52  1  0
 24 53  1  0
 24 54  1  0
 25 55  1  0
 27 56  1  0
 28 57  1  0
 29 58  1  0
 30 59  1  0
 32 60  1  0
 34 61  1  0
 38 62  1  0
 41 63  1  0
 41 64  1  0
M  CHG  3   5  -1  16   1  19  -1
M  END
>  <EmbedRMS>  (439) 
0.08732915620985592

$$$$

     RDKit          3D

 64 67  0  0  0  0  0  0  0  0999 V2000
   10.2874   43.7714   33.8026 C   0  0  0  0  0  0  0  0  0  0  0  0
   11.4094   43.5882   34.3602 O   0  0  0  0  0  0  0  0  0  0  0  0
    9.3682   42.7307   33.6989 O   0  0  0  0  0  0  0  0  0  0  0  0
    9.8855   41.2338   34.2838 P   0  0  0  0  0  5  0  0  0  0  0  0
   10.3663   41.4684   35.8735 O   0  0  0  0  0  1  0  0  0  0  0  0
    9.9533   45.1149   33.2528 C   0  0  2  0  0  0  0  0  0  0  0  0
   11.0696   46.0348   33.4788 N   0  0  0  0  0  0  0  0  0  0  0  0
    8.6571   45.6657   33.8834 C   0  0  0  0  0  0  0  0  0  0  0  0
    8.7971   45.9240   35.3556 C   0  0  0  0  0  0  0  0  0  0  0  0
    8.9588   44.8458   36.2294 O   0  0  0  0  0  0  0  0  0  0  0  0
    8.7780   47.1077   35.7909 O   0  0  0  0  0  0  0  0  0  0  0  0
    9.0696   45.0005   37.6391 C   0  0  0  0  0  0  0  0  0  0  0  0
    9.3648   43.6614   38.2620 C   0  0  0  0  0  0  0  0  0  0  0  0
    8.3453   42.7098   38.5372 C   0  0  0  0  0  0  0  0  0  0  0  0
   10.7019   43.3425   38.5612 C   0  0  0  0  0  0  0  0  0  0  0  0
    6.9639   42.9523   38.2132 N   0  0  0  0  0  4  0  0  0  0  0  0
    8.6942   41.4940   39.1521 C   0  0  0  0  0  0  0  0  0  0  0  0
   11.0272   42.1233   39.1565 C   0  0  0  0  0  0  0  0  0  0  0  0
    5.9703   42.3730   38.9687 O   0  0  0  0  0  1  0  0  0  0  0  0
    6.6489   43.5337   37.1549 O   0  0  0  0  0  0  0  0  0  0  0  0
   10.0247   41.2036   39.4570 C   0  0  0  0  0  0  0  0  0  0  0  0
    8.8077   40.1913   34.2083 O   0  0  0  0  0  0  0  0  0  0  0  0
   11.2380   40.7895   33.3687 O   0  0  0  0  0  0  0  0  0  0  0  0
   10.9187   40.6887   31.9949 C   0  0  0  0  0  0  0  0  0  0  0  0
   11.5180   39.3800   31.4398 C   0  0  0  0  0  0  0  0  0  0  0  0
   12.7484   39.0876   32.0750 O   0  0  0  0  0  0  0  0  0  0  0  0
   10.6053   38.1875   31.6657 C   0  0  0  0  0  0  0  0  0  0  0  0
   12.9360   37.6816   32.0289 C   0  0  0  0  0  0  0  0  0  0  0  0
    9.6423   38.0738   30.6446 O   0  0  0  0  0  0  0  0  0  0  0  0
   11.5765   37.0158   31.7047 C   0  0  0  0  0  0  0  0  0  0  0  0
   13.4908   37.2183   33.3237 N   0  0  0  0  0  0  0  0  0  0  0  0
   11.6102   36.3399   30.4680 O   0  0  0  0  0  0  0  0  0  0  0  0
   14.4761   36.3274   33.5729 C   0  0  0  0  0  0  0  0  0  0  0  0
   13.1181   37.6319   34.5690 C   0  0  0  0  0  0  0  0  0  0  0  0
   15.2063   35.6141   32.6739 N   0  0  0  0  0  0  0  0  0  0  0  0
   14.6733   36.2276   34.9183 C   0  0  0  0  0  0  0  0  0  0  0  0
   13.8226   37.0458   35.5784 N   0  0  0  0  0  0  0  0  0  0  0  0
   16.1635   34.7595   33.1546 C   0  0  0  0  0  0  0  0  0  0  0  0
   15.6515   35.3493   35.4131 C   0  0  0  0  0  0  0  0  0  0  0  0
   16.3790   34.6310   34.5041 N   0  0  0  0  0  0  0  0  0  0  0  0
   15.9002   35.1934   36.8089 N   0  0  0  0  0  0  0  0  0  0  0  0
    9.7868   45.0045   32.1575 H   0  0  0  0  0  0  0  0  0  0  0  0
   11.8819   45.7170   32.9003 H   0  0  0  0  0  0  0  0  0  0  0  0
   10.8062   46.9735   33.0995 H   0  0  0  0  0  0  0  0  0  0  0  0
    8.3731   46.6083   33.3660 H   0  0  0  0  0  0  0  0  0  0  0  0
    7.8241   44.9475   33.7231 H   0  0  0  0  0  0  0  0  0  0  0  0
    8.1295   45.4239   38.0531 H   0  0  0  0  0  0  0  0  0  0  0  0
    9.8834   45.7229   37.8707 H   0  0  0  0  0  0  0  0  0  0  0  0
   11.4973   44.0431   38.3378 H   0  0  0  0  0  0  0  0  0  0  0  0
    7.9345   40.7564   39.3772 H   0  0  0  0  0  0  0  0  0  0  0  0
   12.0593   41.8919   39.3862 H   0  0  0  0  0  0  0  0  0  0  0  0
   10.2796   40.2590   39.9201 H   0  0  0  0  0  0  0  0  0  0  0  0
   11.3992   41.5436   31.4730 H   0  0  0  0  0  0  0  0  0  0  0  0
    9.8307   40.7373   31.7552 H   0  0  0  0  0  0  0  0  0  0  0  0
   11.7001   39.5046   30.3474 H   0  0  0  0  0  0  0  0  0  0  0  0
   10.1104   38.2619   32.6637 H   0  0  0  0  0  0  0  0  0  0  0  0
   13.6696   37.4586   31.2223 H   0  0  0  0  0  0  0  0  0  0  0  0
    8.8999   38.6881   30.8815 H   0  0  0  0  0  0  0  0  0  0  0  0
   11.2690   36.3069   32.5091 H   0  0  0  0  0  0  0  0  0  0  0  0
   12.1426   35.5151   30.6153 H   0  0  0  0  0  0  0  0  0  0  0  0
   12.3359   38.3595   34.7446 H   0  0  0  0  0  0  0  0  0  0  0  0
   16.7568   34.1789   32.4618 H   0  0  0  0  0  0  0  0  0  0  0  0
   15.3530   35.7357   37.5138 H   0  0  0  0  0  0  0  0  0  0  0  0
   16.6361   34.5316   37.1414 H   0  0  0  0  0  0  0  0  0  0  0  0
  1  2  2  0
  1  3  1  0
  3  4  1  0
  4  5  1  0
  6  1  1  0
  7  6  1  0
  6  8  1  0
  8  9  1  0
  9 10  1  0
  9 11  2  0
 10 12  1  0
 12 13  1  0
 13 14  2  0
 15 13  1  0
 14 16  1  0
 14 17  1  0
 18 15  2  0
 16 19  1  0
 16 20  2  0
 17 21  2  0
 21 18  1  0
  4 22  2  0
  4 23  1  0
 24 23  1  0
 24 25  1  0
 25 26  1  0
 25 27  1  0
 26 28  1  0
 27 29  1  0
 27 30  1  0
 30 28  1  0
 28 31  1  0
 30 32  1  0
 33 31  1  0
 34 31  1  0
 35 33  2  0
 33 36  1  0
 37 34  2  0
 38 35  1  0
 36 39  2  0
 36 37  1  0
 40 38  2  0
 40 39  1  0
 39 41  1  0
  6 42  1  6
  7 43  1  0
  7 44  1  0
  8 45  1  0
  8 46  1  0
 12 47  1  0
 12 48  1  0
 15 49  1  0
 17 50  1  0
 18 51  1  0
 21 52  1  0
 24 53  1  0
 24 54  1  0
 25 55  1  0
 27 56  1  0
 28 57  1  0
 29 58  1  0
 30 59  1  0
 32 60  1  0
 34 61  1  0
 38 62  1  0
 41 63  1  0
 41 64  1  0
M  CHG  3   5  -1  16   1  19  -1
M  END
>  <EmbedRMS>  (440) 
0.08941925052686583

$$$$

     RDKit          3D

 64 67  0  0  0  0  0  0  0  0999 V2000
   10.2874   43.7711   33.8023 C   0  0  0  0  0  0  0  0  0  0  0  0
   11.4124   43.5866   34.3532 O   0  0  0  0  0  0  0  0  0  0  0  0
    9.3678   42.7306   33.6993 O   0  0  0  0  0  0  0  0  0  0  0  0
    9.8853   41.2342   34.2845 P   0  0  0  0  0  5  0  0  0  0  0  0
   10.3650   41.4710   35.8751 O   0  0  0  0  0  1  0  0  0  0  0  0
    9.9569   45.1111   33.2466 C   0  0  2  0  0  0  0  0  0  0  0  0
   11.0655   46.0374   33.4879 N   0  0  0  0  0  0  0  0  0  0  0  0
    8.6207   45.6545   33.8024 C   0  0  0  0  0  0  0  0  0  0  0  0
    8.6197   45.8060   35.2961 C   0  0  0  0  0  0  0  0  0  0  0  0
    8.6512   44.6638   36.1035 O   0  0  0  0  0  0  0  0  0  0  0  0
    8.5964   46.9575   35.8103 O   0  0  0  0  0  0  0  0  0  0  0  0
    8.5634   44.7059   37.5254 C   0  0  0  0  0  0  0  0  0  0  0  0
    7.1612   45.0611   37.9605 C   0  0  0  0  0  0  0  0  0  0  0  0
    6.0216   44.3578   37.4848 C   0  0  0  0  0  0  0  0  0  0  0  0
    6.9821   46.1485   38.8350 C   0  0  0  0  0  0  0  0  0  0  0  0
    6.1402   43.2262   36.6026 N   0  0  0  0  0  4  0  0  0  0  0  0
    4.7400   44.7892   37.8739 C   0  0  0  0  0  0  0  0  0  0  0  0
    5.7024   46.5493   39.2205 C   0  0  0  0  0  0  0  0  0  0  0  0
    7.1292   42.2890   36.7903 O   0  0  0  0  0  1  0  0  0  0  0  0
    5.2530   42.9990   35.7541 O   0  0  0  0  0  0  0  0  0  0  0  0
    4.5836   45.8743   38.7371 C   0  0  0  0  0  0  0  0  0  0  0  0
    8.8074   40.1917   34.2089 O   0  0  0  0  0  0  0  0  0  0  0  0
   11.2377   40.7895   33.3693 O   0  0  0  0  0  0  0  0  0  0  0  0
   10.9185   40.6887   31.9955 C   0  0  0  0  0  0  0  0  0  0  0  0
   11.5179   39.3801   31.4400 C   0  0  0  0  0  0  0  0  0  0  0  0
   12.7484   39.0876   32.0751 O   0  0  0  0  0  0  0  0  0  0  0  0
   10.6053   38.1875   31.6657 C   0  0  0  0  0  0  0  0  0  0  0  0
   12.9360   37.6817   32.0288 C   0  0  0  0  0  0  0  0  0  0  0  0
    9.6423   38.0738   30.6445 O   0  0  0  0  0  0  0  0  0  0  0  0
   11.5765   37.0158   31.7046 C   0  0  0  0  0  0  0  0  0  0  0  0
   13.4908   37.2183   33.3237 N   0  0  0  0  0  0  0  0  0  0  0  0
   11.6102   36.3400   30.4680 O   0  0  0  0  0  0  0  0  0  0  0  0
   14.4762   36.3274   33.5728 C   0  0  0  0  0  0  0  0  0  0  0  0
   13.1181   37.6318   34.5689 C   0  0  0  0  0  0  0  0  0  0  0  0
   15.2063   35.6141   32.6739 N   0  0  0  0  0  0  0  0  0  0  0  0
   14.6733   36.2275   34.9182 C   0  0  0  0  0  0  0  0  0  0  0  0
   13.8226   37.0457   35.5783 N   0  0  0  0  0  0  0  0  0  0  0  0
   16.1635   34.7595   33.1546 C   0  0  0  0  0  0  0  0  0  0  0  0
   15.6515   35.3492   35.4130 C   0  0  0  0  0  0  0  0  0  0  0  0
   16.3791   34.6310   34.5041 N   0  0  0  0  0  0  0  0  0  0  0  0
   15.9002   35.1934   36.8089 N   0  0  0  0  0  0  0  0  0  0  0  0
    9.8422   44.9884   32.1472 H   0  0  0  0  0  0  0  0  0  0  0  0
   10.8568   46.9409   33.0038 H   0  0  0  0  0  0  0  0  0  0  0  0
   11.1444   46.2444   34.5104 H   0  0  0  0  0  0  0  0  0  0  0  0
    8.3999   46.6354   33.3273 H   0  0  0  0  0  0  0  0  0  0  0  0
    7.7952   44.9665   33.5184 H   0  0  0  0  0  0  0  0  0  0  0  0
    9.3137   45.4270   37.9185 H   0  0  0  0  0  0  0  0  0  0  0  0
    8.8350   43.7133   37.9390 H   0  0  0  0  0  0  0  0  0  0  0  0
    7.8355   46.6981   39.2127 H   0  0  0  0  0  0  0  0  0  0  0  0
    3.8574   44.2719   37.5194 H   0  0  0  0  0  0  0  0  0  0  0  0
    5.5781   47.3901   39.8908 H   0  0  0  0  0  0  0  0  0  0  0  0
    3.5919   46.1901   39.0345 H   0  0  0  0  0  0  0  0  0  0  0  0
    9.8305   40.7372   31.7559 H   0  0  0  0  0  0  0  0  0  0  0  0
   11.3988   41.5437   31.4735 H   0  0  0  0  0  0  0  0  0  0  0  0
   11.6999   39.5049   30.3476 H   0  0  0  0  0  0  0  0  0  0  0  0
   10.1102   38.2617   32.6637 H   0  0  0  0  0  0  0  0  0  0  0  0
   13.6696   37.4587   31.2223 H   0  0  0  0  0  0  0  0  0  0  0  0
    8.9000   38.6882   30.8814 H   0  0  0  0  0  0  0  0  0  0  0  0
   11.2690   36.3069   32.5091 H   0  0  0  0  0  0  0  0  0  0  0  0
   12.1427   35.5152   30.6153 H   0  0  0  0  0  0  0  0  0  0  0  0
   12.3358   38.3593   34.7445 H   0  0  0  0  0  0  0  0  0  0  0  0
   16.7569   34.1789   32.4618 H   0  0  0  0  0  0  0  0  0  0  0  0
   15.3530   35.7356   37.5138 H   0  0  0  0  0  0  0  0  0  0  0  0
   16.6361   34.5315   37.1414 H   0  0  0  0  0  0  0  0  0  0  0  0
  1  2  2  0
  1  3  1  0
  3  4  1  0
  4  5  1  0
  6  1  1  0
  7  6  1  0
  6  8  1  0
  8  9  1  0
  9 10  1  0
  9 11  2  0
 10 12  1  0
 12 13  1  0
 13 14  2  0
 15 13  1  0
 14 16  1  0
 14 17  1  0
 18 15  2  0
 16 19  1  0
 16 20  2  0
 17 21  2  0
 21 18  1  0
  4 22  2  0
  4 23  1  0
 24 23  1  0
 24 25  1  0
 25 26  1  0
 25 27  1  0
 26 28  1  0
 27 29  1  0
 27 30  1  0
 30 28  1  0
 28 31  1  0
 30 32  1  0
 33 31  1  0
 34 31  1  0
 35 33  2  0
 33 36  1  0
 37 34  2  0
 38 35  1  0
 36 39  2  0
 36 37  1  0
 40 38  2  0
 40 39  1  0
 39 41  1  0
  6 42  1  6
  7 43  1  0
  7 44  1  0
  8 45  1  0
  8 46  1  0
 12 47  1  0
 12 48  1  0
 15 49  1  0
 17 50  1  0
 18 51  1  0
 21 52  1  0
 24 53  1  0
 24 54  1  0
 25 55  1  0
 27 56  1  0
 28 57  1  0
 29 58  1  0
 30 59  1  0
 32 60  1  0
 34 61  1  0
 38 62  1  0
 41 63  1  0
 41 64  1  0
M  CHG  3   5  -1  16   1  19  -1
M  END
>  <EmbedRMS>  (441) 
0.08924105894083438

$$$$

     RDKit          3D

 64 67  0  0  0  0  0  0  0  0999 V2000
   10.2864   43.7709   33.8099 C   0  0  0  0  0  0  0  0  0  0  0  0
   11.4101   43.5817   34.3617 O   0  0  0  0  0  0  0  0  0  0  0  0
    9.3669   42.7308   33.7019 O   0  0  0  0  0  0  0  0  0  0  0  0
    9.8846   41.2329   34.2841 P   0  0  0  0  0  5  0  0  0  0  0  0
   10.3655   41.4677   35.8747 O   0  0  0  0  0  1  0  0  0  0  0  0
    9.9610   45.1122   33.2470 C   0  0  2  0  0  0  0  0  0  0  0  0
   11.0652   46.0482   33.4749 N   0  0  0  0  0  0  0  0  0  0  0  0
    8.6652   45.6565   33.8705 C   0  0  0  0  0  0  0  0  0  0  0  0
    8.2706   46.9570   33.2433 C   0  0  0  0  0  0  0  0  0  0  0  0
    7.6551   46.9536   31.9868 O   0  0  0  0  0  0  0  0  0  0  0  0
    8.5230   48.0419   33.8353 O   0  0  0  0  0  0  0  0  0  0  0  0
    7.2139   48.1400   31.3293 C   0  0  0  0  0  0  0  0  0  0  0  0
    6.0311   48.7464   32.0493 C   0  0  0  0  0  0  0  0  0  0  0  0
    4.8703   47.9914   32.3682 C   0  0  0  0  0  0  0  0  0  0  0  0
    6.1047   50.0939   32.4477 C   0  0  0  0  0  0  0  0  0  0  0  0
    4.7258   46.6154   31.9712 N   0  0  0  0  0  4  0  0  0  0  0  0
    3.8386   48.6013   33.1056 C   0  0  0  0  0  0  0  0  0  0  0  0
    5.0628   50.6832   33.1647 C   0  0  0  0  0  0  0  0  0  0  0  0
    5.1395   46.1958   30.7284 O   0  0  0  0  0  1  0  0  0  0  0  0
    4.0791   45.8225   32.6866 O   0  0  0  0  0  0  0  0  0  0  0  0
    3.9343   49.9371   33.4973 C   0  0  0  0  0  0  0  0  0  0  0  0
    8.8069   40.1904   34.2080 O   0  0  0  0  0  0  0  0  0  0  0  0
   11.2367   40.7895   33.3683 O   0  0  0  0  0  0  0  0  0  0  0  0
   10.9159   40.6888   31.9950 C   0  0  0  0  0  0  0  0  0  0  0  0
   11.5251   39.3872   31.4364 C   0  0  0  0  0  0  0  0  0  0  0  0
   12.7486   39.0879   32.0803 O   0  0  0  0  0  0  0  0  0  0  0  0
   10.6100   38.1909   31.6470 C   0  0  0  0  0  0  0  0  0  0  0  0
   12.9348   37.6808   32.0292 C   0  0  0  0  0  0  0  0  0  0  0  0
    9.6126   38.0874   30.6546 O   0  0  0  0  0  0  0  0  0  0  0  0
   11.5767   37.0133   31.7025 C   0  0  0  0  0  0  0  0  0  0  0  0
   13.4901   37.2165   33.3236 N   0  0  0  0  0  0  0  0  0  0  0  0
   11.6322   36.3231   30.4741 O   0  0  0  0  0  0  0  0  0  0  0  0
   14.4763   36.3266   33.5727 C   0  0  0  0  0  0  0  0  0  0  0  0
   13.1179   37.6307   34.5689 C   0  0  0  0  0  0  0  0  0  0  0  0
   15.2065   35.6135   32.6738 N   0  0  0  0  0  0  0  0  0  0  0  0
   14.6736   36.2272   34.9182 C   0  0  0  0  0  0  0  0  0  0  0  0
   13.8228   37.0453   35.5783 N   0  0  0  0  0  0  0  0  0  0  0  0
   16.1640   34.7593   33.1546 C   0  0  0  0  0  0  0  0  0  0  0  0
   15.6519   35.3491   35.4130 C   0  0  0  0  0  0  0  0  0  0  0  0
   16.3795   34.6309   34.5042 N   0  0  0  0  0  0  0  0  0  0  0  0
   15.9005   35.1933   36.8089 N   0  0  0  0  0  0  0  0  0  0  0  0
    9.8109   44.9945   32.1507 H   0  0  0  0  0  0  0  0  0  0  0  0
   11.9219   45.7026   32.9831 H   0  0  0  0  0  0  0  0  0  0  0  0
   11.2746   46.1186   34.4984 H   0  0  0  0  0  0  0  0  0  0  0  0
    8.7948   45.7903   34.9675 H   0  0  0  0  0  0  0  0  0  0  0  0
    7.8366   44.9321   33.7132 H   0  0  0  0  0  0  0  0  0  0  0  0
    8.0635   48.8546   31.2602 H   0  0  0  0  0  0  0  0  0  0  0  0
    6.9234   47.8961   30.2872 H   0  0  0  0  0  0  0  0  0  0  0  0
    6.9778   50.6908   32.2139 H   0  0  0  0  0  0  0  0  0  0  0  0
    2.9473   48.0436   33.3644 H   0  0  0  0  0  0  0  0  0  0  0  0
    5.1340   51.7195   33.4687 H   0  0  0  0  0  0  0  0  0  0  0  0
    3.1293   50.3955   34.0571 H   0  0  0  0  0  0  0  0  0  0  0  0
   11.3847   41.5506   31.4736 H   0  0  0  0  0  0  0  0  0  0  0  0
    9.8259   40.7204   31.7574 H   0  0  0  0  0  0  0  0  0  0  0  0
   11.7273   39.5286   30.3501 H   0  0  0  0  0  0  0  0  0  0  0  0
   10.1122   38.2731   32.6390 H   0  0  0  0  0  0  0  0  0  0  0  0
   13.6685   37.4591   31.2224 H   0  0  0  0  0  0  0  0  0  0  0  0
   10.0514   38.1109   29.7647 H   0  0  0  0  0  0  0  0  0  0  0  0
   11.2801   36.3128   32.5195 H   0  0  0  0  0  0  0  0  0  0  0  0
   10.8625   35.6960   30.4645 H   0  0  0  0  0  0  0  0  0  0  0  0
   12.3356   38.3581   34.7445 H   0  0  0  0  0  0  0  0  0  0  0  0
   16.7575   34.1788   32.4619 H   0  0  0  0  0  0  0  0  0  0  0  0
   16.6364   34.5315   37.1414 H   0  0  0  0  0  0  0  0  0  0  0  0
   15.3531   35.7355   37.5138 H   0  0  0  0  0  0  0  0  0  0  0  0
  1  2  2  0
  1  3  1  0
  3  4  1  0
  4  5  1  0
  6  1  1  0
  7  6  1  0
  6  8  1  0
  8  9  1  0
  9 10  1  0
  9 11  2  0
 10 12  1  0
 12 13  1  0
 13 14  2  0
 15 13  1  0
 14 16  1  0
 14 17  1  0
 18 15  2  0
 16 19  1  0
 16 20  2  0
 17 21  2  0
 21 18  1  0
  4 22  2  0
  4 23  1  0
 24 23  1  0
 24 25  1  0
 25 26  1  0
 25 27  1  0
 26 28  1  0
 27 29  1  0
 27 30  1  0
 30 28  1  0
 28 31  1  0
 30 32  1  0
 33 31  1  0
 34 31  1  0
 35 33  2  0
 33 36  1  0
 37 34  2  0
 38 35  1  0
 36 39  2  0
 36 37  1  0
 40 38  2  0
 40 39  1  0
 39 41  1  0
  6 42  1  6
  7 43  1  0
  7 44  1  0
  8 45  1  0
  8 46  1  0
 12 47  1  0
 12 48  1  0
 15 49  1  0
 17 50  1  0
 18 51  1  0
 21 52  1  0
 24 53  1  0
 24 54  1  0
 25 55  1  0
 27 56  1  0
 28 57  1  0
 29 58  1  0
 30 59  1  0
 32 60  1  0
 34 61  1  0
 38 62  1  0
 41 63  1  0
 41 64  1  0
M  CHG  3   5  -1  16   1  19  -1
M  END
>  <EmbedRMS>  (442) 
0.0886659022051976

$$$$

     RDKit          3D

 64 67  0  0  0  0  0  0  0  0999 V2000
   10.2841   43.7717   33.8120 C   0  0  0  0  0  0  0  0  0  0  0  0
   11.4080   43.5828   34.3637 O   0  0  0  0  0  0  0  0  0  0  0  0
    9.3689   42.7286   33.6998 O   0  0  0  0  0  0  0  0  0  0  0  0
    9.8858   41.2319   34.2837 P   0  0  0  0  0  5  0  0  0  0  0  0
   10.3653   41.4677   35.8745 O   0  0  0  0  0  1  0  0  0  0  0  0
    9.9584   45.1169   33.2493 C   0  0  2  0  0  0  0  0  0  0  0  0
   11.0686   46.0456   33.4711 N   0  0  0  0  0  0  0  0  0  0  0  0
    8.6772   45.7005   33.8741 C   0  0  0  0  0  0  0  0  0  0  0  0
    7.4524   44.9402   33.4640 C   0  0  0  0  0  0  0  0  0  0  0  0
    7.0799   44.9098   32.1142 O   0  0  0  0  0  0  0  0  0  0  0  0
    6.7699   44.3346   34.3351 O   0  0  0  0  0  0  0  0  0  0  0  0
    5.9636   44.1659   31.6239 C   0  0  0  0  0  0  0  0  0  0  0  0
    4.6611   44.9448   31.6696 C   0  0  0  0  0  0  0  0  0  0  0  0
    3.4985   44.4535   31.0104 C   0  0  0  0  0  0  0  0  0  0  0  0
    4.5883   46.1868   32.3370 C   0  0  0  0  0  0  0  0  0  0  0  0
    3.4907   43.1965   30.3073 N   0  0  0  0  0  4  0  0  0  0  0  0
    2.3228   45.2250   31.0209 C   0  0  0  0  0  0  0  0  0  0  0  0
    3.4052   46.9261   32.3464 C   0  0  0  0  0  0  0  0  0  0  0  0
    2.6647   43.0242   29.2202 O   0  0  0  0  0  1  0  0  0  0  0  0
    4.0919   42.2034   30.7646 O   0  0  0  0  0  0  0  0  0  0  0  0
    2.2763   46.4482   31.6876 C   0  0  0  0  0  0  0  0  0  0  0  0
    8.8077   40.1898   34.2071 O   0  0  0  0  0  0  0  0  0  0  0  0
   11.2384   40.7889   33.3684 O   0  0  0  0  0  0  0  0  0  0  0  0
   10.9189   40.6886   31.9947 C   0  0  0  0  0  0  0  0  0  0  0  0
   11.5180   39.3799   31.4395 C   0  0  0  0  0  0  0  0  0  0  0  0
   12.7484   39.0875   32.0747 O   0  0  0  0  0  0  0  0  0  0  0  0
   10.6053   38.1875   31.6655 C   0  0  0  0  0  0  0  0  0  0  0  0
   12.9360   37.6815   32.0287 C   0  0  0  0  0  0  0  0  0  0  0  0
    9.6422   38.0738   30.6445 O   0  0  0  0  0  0  0  0  0  0  0  0
   11.5764   37.0158   31.7046 C   0  0  0  0  0  0  0  0  0  0  0  0
   13.4908   37.2182   33.3236 N   0  0  0  0  0  0  0  0  0  0  0  0
   11.6102   36.3399   30.4680 O   0  0  0  0  0  0  0  0  0  0  0  0
   14.4762   36.3273   33.5728 C   0  0  0  0  0  0  0  0  0  0  0  0
   13.1181   37.6318   34.5688 C   0  0  0  0  0  0  0  0  0  0  0  0
   15.2063   35.6141   32.6738 N   0  0  0  0  0  0  0  0  0  0  0  0
   14.6733   36.2275   34.9182 C   0  0  0  0  0  0  0  0  0  0  0  0
   13.8226   37.0457   35.5783 N   0  0  0  0  0  0  0  0  0  0  0  0
   16.1635   34.7595   33.1546 C   0  0  0  0  0  0  0  0  0  0  0  0
   15.6515   35.3492   35.4130 C   0  0  0  0  0  0  0  0  0  0  0  0
   16.3791   34.6310   34.5041 N   0  0  0  0  0  0  0  0  0  0  0  0
   15.9002   35.1934   36.8089 N   0  0  0  0  0  0  0  0  0  0  0  0
    9.8102   45.0096   32.1518 H   0  0  0  0  0  0  0  0  0  0  0  0
   11.2818   46.1172   34.4938 H   0  0  0  0  0  0  0  0  0  0  0  0
   11.9219   45.6942   32.9773 H   0  0  0  0  0  0  0  0  0  0  0  0
    8.7670   45.7125   34.9833 H   0  0  0  0  0  0  0  0  0  0  0  0
    8.5526   46.7522   33.5369 H   0  0  0  0  0  0  0  0  0  0  0  0
    5.8640   43.2195   32.1974 H   0  0  0  0  0  0  0  0  0  0  0  0
    6.1779   43.9026   30.5667 H   0  0  0  0  0  0  0  0  0  0  0  0
    5.4448   46.6059   32.8449 H   0  0  0  0  0  0  0  0  0  0  0  0
    1.4301   44.8693   30.5221 H   0  0  0  0  0  0  0  0  0  0  0  0
    3.3666   47.8777   32.8610 H   0  0  0  0  0  0  0  0  0  0  0  0
    1.3615   47.0268   31.6936 H   0  0  0  0  0  0  0  0  0  0  0  0
   11.3995   41.5435   31.4729 H   0  0  0  0  0  0  0  0  0  0  0  0
    9.8309   40.7376   31.7549 H   0  0  0  0  0  0  0  0  0  0  0  0
   11.7001   39.5045   30.3471 H   0  0  0  0  0  0  0  0  0  0  0  0
   10.1104   38.2619   32.6635 H   0  0  0  0  0  0  0  0  0  0  0  0
   13.6695   37.4584   31.2222 H   0  0  0  0  0  0  0  0  0  0  0  0
    8.9002   38.6887   30.8810 H   0  0  0  0  0  0  0  0  0  0  0  0
   11.2689   36.3069   32.5091 H   0  0  0  0  0  0  0  0  0  0  0  0
   12.1425   35.5150   30.6153 H   0  0  0  0  0  0  0  0  0  0  0  0
   12.3358   38.3593   34.7444 H   0  0  0  0  0  0  0  0  0  0  0  0
   16.7569   34.1789   32.4618 H   0  0  0  0  0  0  0  0  0  0  0  0
   16.6361   34.5315   37.1413 H   0  0  0  0  0  0  0  0  0  0  0  0
   15.3530   35.7357   37.5137 H   0  0  0  0  0  0  0  0  0  0  0  0
  1  2  2  0
  1  3  1  0
  3  4  1  0
  4  5  1  0
  6  1  1  0
  7  6  1  0
  6  8  1  0
  8  9  1  0
  9 10  1  0
  9 11  2  0
 10 12  1  0
 12 13  1  0
 13 14  2  0
 15 13  1  0
 14 16  1  0
 14 17  1  0
 18 15  2  0
 16 19  1  0
 16 20  2  0
 17 21  2  0
 21 18  1  0
  4 22  2  0
  4 23  1  0
 24 23  1  0
 24 25  1  0
 25 26  1  0
 25 27  1  0
 26 28  1  0
 27 29  1  0
 27 30  1  0
 30 28  1  0
 28 31  1  0
 30 32  1  0
 33 31  1  0
 34 31  1  0
 35 33  2  0
 33 36  1  0
 37 34  2  0
 38 35  1  0
 36 39  2  0
 36 37  1  0
 40 38  2  0
 40 39  1  0
 39 41  1  0
  6 42  1  6
  7 43  1  0
  7 44  1  0
  8 45  1  0
  8 46  1  0
 12 47  1  0
 12 48  1  0
 15 49  1  0
 17 50  1  0
 18 51  1  0
 21 52  1  0
 24 53  1  0
 24 54  1  0
 25 55  1  0
 27 56  1  0
 28 57  1  0
 29 58  1  0
 30 59  1  0
 32 60  1  0
 34 61  1  0
 38 62  1  0
 41 63  1  0
 41 64  1  0
M  CHG  3   5  -1  16   1  19  -1
M  END
>  <EmbedRMS>  (443) 
0.09003841414547244

$$$$

     RDKit          3D

 64 67  0  0  0  0  0  0  0  0999 V2000
   10.2863   43.7710   33.8101 C   0  0  0  0  0  0  0  0  0  0  0  0
   11.4100   43.5817   34.3619 O   0  0  0  0  0  0  0  0  0  0  0  0
    9.3668   42.7309   33.7020 O   0  0  0  0  0  0  0  0  0  0  0  0
    9.8849   41.2328   34.2833 P   0  0  0  0  0  5  0  0  0  0  0  0
   10.3662   41.4672   35.8738 O   0  0  0  0  0  1  0  0  0  0  0  0
    9.9615   45.1118   33.2462 C   0  0  2  0  0  0  0  0  0  0  0  0
   11.0650   46.0483   33.4751 N   0  0  0  0  0  0  0  0  0  0  0  0
    8.6639   45.6567   33.8661 C   0  0  0  0  0  0  0  0  0  0  0  0
    8.2788   46.9622   33.2425 C   0  0  0  0  0  0  0  0  0  0  0  0
    7.7745   46.9758   31.9395 O   0  0  0  0  0  0  0  0  0  0  0  0
    8.4437   48.0374   33.8812 O   0  0  0  0  0  0  0  0  0  0  0  0
    7.4451   48.1792   31.2548 C   0  0  0  0  0  0  0  0  0  0  0  0
    6.9962   47.8499   29.8553 C   0  0  0  0  0  0  0  0  0  0  0  0
    7.9168   47.6456   28.7916 C   0  0  0  0  0  0  0  0  0  0  0  0
    5.6173   47.7354   29.6032 C   0  0  0  0  0  0  0  0  0  0  0  0
    9.3415   47.6978   28.9919 N   0  0  0  0  0  4  0  0  0  0  0  0
    7.4220   47.3916   27.4999 C   0  0  0  0  0  0  0  0  0  0  0  0
    5.1489   47.4650   28.3169 C   0  0  0  0  0  0  0  0  0  0  0  0
   10.1648   48.0943   27.9631 O   0  0  0  0  0  1  0  0  0  0  0  0
    9.8587   47.2212   30.0228 O   0  0  0  0  0  0  0  0  0  0  0  0
    6.0491   47.3010   27.2660 C   0  0  0  0  0  0  0  0  0  0  0  0
    8.8070   40.1904   34.2076 O   0  0  0  0  0  0  0  0  0  0  0  0
   11.2367   40.7902   33.3659 O   0  0  0  0  0  0  0  0  0  0  0  0
   10.9141   40.6850   31.9931 C   0  0  0  0  0  0  0  0  0  0  0  0
   11.5165   39.3773   31.4393 C   0  0  0  0  0  0  0  0  0  0  0  0
   12.7471   39.0855   32.0739 O   0  0  0  0  0  0  0  0  0  0  0  0
   10.6047   38.1867   31.6669 C   0  0  0  0  0  0  0  0  0  0  0  0
   12.9345   37.6791   32.0282 C   0  0  0  0  0  0  0  0  0  0  0  0
    9.6378   38.0917   30.6488 O   0  0  0  0  0  0  0  0  0  0  0  0
   11.5761   37.0129   31.7056 C   0  0  0  0  0  0  0  0  0  0  0  0
   13.4909   37.2177   33.3233 N   0  0  0  0  0  0  0  0  0  0  0  0
   11.6234   36.3371   30.4684 O   0  0  0  0  0  0  0  0  0  0  0  0
   14.4765   36.3272   33.5727 C   0  0  0  0  0  0  0  0  0  0  0  0
   13.1182   37.6316   34.5685 C   0  0  0  0  0  0  0  0  0  0  0  0
   15.2066   35.6138   32.6739 N   0  0  0  0  0  0  0  0  0  0  0  0
   14.6736   36.2276   34.9182 C   0  0  0  0  0  0  0  0  0  0  0  0
   13.8227   37.0457   35.5781 N   0  0  0  0  0  0  0  0  0  0  0  0
   16.1638   34.7593   33.1547 C   0  0  0  0  0  0  0  0  0  0  0  0
   15.6517   35.3493   35.4131 C   0  0  0  0  0  0  0  0  0  0  0  0
   16.3792   34.6309   34.5043 N   0  0  0  0  0  0  0  0  0  0  0  0
   15.9003   35.1934   36.8090 N   0  0  0  0  0  0  0  0  0  0  0  0
    9.8141   44.9928   32.1496 H   0  0  0  0  0  0  0  0  0  0  0  0
   11.2736   46.1185   34.4987 H   0  0  0  0  0  0  0  0  0  0  0  0
   11.9222   45.7035   32.9835 H   0  0  0  0  0  0  0  0  0  0  0  0
    8.7887   45.7833   34.9646 H   0  0  0  0  0  0  0  0  0  0  0  0
    7.8340   44.9363   33.6990 H   0  0  0  0  0  0  0  0  0  0  0  0
    6.6396   48.7095   31.8089 H   0  0  0  0  0  0  0  0  0  0  0  0
    8.3228   48.8603   31.2273 H   0  0  0  0  0  0  0  0  0  0  0  0
    4.8996   47.8663   30.4039 H   0  0  0  0  0  0  0  0  0  0  0  0
    8.1035   47.2411   26.6722 H   0  0  0  0  0  0  0  0  0  0  0  0
    4.0849   47.3868   28.1340 H   0  0  0  0  0  0  0  0  0  0  0  0
    5.6830   47.0947   26.2685 H   0  0  0  0  0  0  0  0  0  0  0  0
    9.8241   40.7213   31.7563 H   0  0  0  0  0  0  0  0  0  0  0  0
   11.3872   41.5416   31.4671 H   0  0  0  0  0  0  0  0  0  0  0  0
   11.6986   39.5013   30.3467 H   0  0  0  0  0  0  0  0  0  0  0  0
   10.1095   38.2771   32.6628 H   0  0  0  0  0  0  0  0  0  0  0  0
   13.6672   37.4545   31.2213 H   0  0  0  0  0  0  0  0  0  0  0  0
    8.9779   37.4157   30.9533 H   0  0  0  0  0  0  0  0  0  0  0  0
   11.2861   36.3041   32.5177 H   0  0  0  0  0  0  0  0  0  0  0  0
   10.8690   35.6918   30.4657 H   0  0  0  0  0  0  0  0  0  0  0  0
   12.3356   38.3587   34.7440 H   0  0  0  0  0  0  0  0  0  0  0  0
   16.7572   34.1786   32.4621 H   0  0  0  0  0  0  0  0  0  0  0  0
   16.6361   34.5315   37.1415 H   0  0  0  0  0  0  0  0  0  0  0  0
   15.3530   35.7358   37.5138 H   0  0  0  0  0  0  0  0  0  0  0  0
  1  2  2  0
  1  3  1  0
  3  4  1  0
  4  5  1  0
  6  1  1  0
  7  6  1  0
  6  8  1  0
  8  9  1  0
  9 10  1  0
  9 11  2  0
 10 12  1  0
 12 13  1  0
 13 14  2  0
 15 13  1  0
 14 16  1  0
 14 17  1  0
 18 15  2  0
 16 19  1  0
 16 20  2  0
 17 21  2  0
 21 18  1  0
  4 22  2  0
  4 23  1  0
 24 23  1  0
 24 25  1  0
 25 26  1  0
 25 27  1  0
 26 28  1  0
 27 29  1  0
 27 30  1  0
 30 28  1  0
 28 31  1  0
 30 32  1  0
 33 31  1  0
 34 31  1  0
 35 33  2  0
 33 36  1  0
 37 34  2  0
 38 35  1  0
 36 39  2  0
 36 37  1  0
 40 38  2  0
 40 39  1  0
 39 41  1  0
  6 42  1  6
  7 43  1  0
  7 44  1  0
  8 45  1  0
  8 46  1  0
 12 47  1  0
 12 48  1  0
 15 49  1  0
 17 50  1  0
 18 51  1  0
 21 52  1  0
 24 53  1  0
 24 54  1  0
 25 55  1  0
 27 56  1  0
 28 57  1  0
 29 58  1  0
 30 59  1  0
 32 60  1  0
 34 61  1  0
 38 62  1  0
 41 63  1  0
 41 64  1  0
M  CHG  3   5  -1  16   1  19  -1
M  END
>  <EmbedRMS>  (444) 
0.08950926388715208

$$$$

     RDKit          3D

 64 67  0  0  0  0  0  0  0  0999 V2000
   10.2828   43.7756   33.8077 C   0  0  0  0  0  0  0  0  0  0  0  0
   11.4085   43.5915   34.3577 O   0  0  0  0  0  0  0  0  0  0  0  0
    9.3664   42.7321   33.7017 O   0  0  0  0  0  0  0  0  0  0  0  0
    9.8857   41.2349   34.2847 P   0  0  0  0  0  5  0  0  0  0  0  0
   10.3666   41.4698   35.8750 O   0  0  0  0  0  1  0  0  0  0  0  0
    9.9535   45.1117   33.2430 C   0  0  2  0  0  0  0  0  0  0  0  0
   11.0724   46.0269   33.4850 N   0  0  0  0  0  0  0  0  0  0  0  0
    8.6396   45.6440   33.8531 C   0  0  0  0  0  0  0  0  0  0  0  0
    8.2231   46.9344   33.2191 C   0  0  0  0  0  0  0  0  0  0  0  0
    8.5597   48.1432   33.8378 O   0  0  0  0  0  0  0  0  0  0  0  0
    7.6130   46.9202   32.1155 O   0  0  0  0  0  0  0  0  0  0  0  0
    8.1733   49.4217   33.3376 C   0  0  0  0  0  0  0  0  0  0  0  0
    6.7069   49.6743   33.5956 C   0  0  0  0  0  0  0  0  0  0  0  0
    6.2232   50.1045   34.8607 C   0  0  0  0  0  0  0  0  0  0  0  0
    5.7973   49.4946   32.5373 C   0  0  0  0  0  0  0  0  0  0  0  0
    7.1005   50.2998   35.9855 N   0  0  0  0  0  4  0  0  0  0  0  0
    4.8488   50.3667   35.0138 C   0  0  0  0  0  0  0  0  0  0  0  0
    4.4367   49.7457   32.7159 C   0  0  0  0  0  0  0  0  0  0  0  0
    8.1279   49.4212   36.2378 O   0  0  0  0  0  1  0  0  0  0  0  0
    6.8382   51.1736   36.8379 O   0  0  0  0  0  0  0  0  0  0  0  0
    3.9638   50.1843   33.9506 C   0  0  0  0  0  0  0  0  0  0  0  0
    8.8084   40.1917   34.2089 O   0  0  0  0  0  0  0  0  0  0  0  0
   11.2373   40.7915   33.3686 O   0  0  0  0  0  0  0  0  0  0  0  0
   10.9152   40.6899   31.9958 C   0  0  0  0  0  0  0  0  0  0  0  0
   11.5269   39.3898   31.4374 C   0  0  0  0  0  0  0  0  0  0  0  0
   12.7506   39.0917   32.0840 O   0  0  0  0  0  0  0  0  0  0  0  0
   10.6121   38.1916   31.6452 C   0  0  0  0  0  0  0  0  0  0  0  0
   12.9429   37.6853   32.0295 C   0  0  0  0  0  0  0  0  0  0  0  0
    9.6069   38.0858   30.6603 O   0  0  0  0  0  0  0  0  0  0  0  0
   11.5845   37.0186   31.6880 C   0  0  0  0  0  0  0  0  0  0  0  0
   13.4899   37.2163   33.3250 N   0  0  0  0  0  0  0  0  0  0  0  0
   11.6201   36.3063   30.4693 O   0  0  0  0  0  0  0  0  0  0  0  0
   14.4759   36.3263   33.5738 C   0  0  0  0  0  0  0  0  0  0  0  0
   13.1176   37.6307   34.5699 C   0  0  0  0  0  0  0  0  0  0  0  0
   15.2065   35.6139   32.6746 N   0  0  0  0  0  0  0  0  0  0  0  0
   14.6731   36.2267   34.9191 C   0  0  0  0  0  0  0  0  0  0  0  0
   13.8224   37.0450   35.5792 N   0  0  0  0  0  0  0  0  0  0  0  0
   16.1640   34.7596   33.1551 C   0  0  0  0  0  0  0  0  0  0  0  0
   15.6517   35.3489   35.4136 C   0  0  0  0  0  0  0  0  0  0  0  0
   16.3795   34.6310   34.5045 N   0  0  0  0  0  0  0  0  0  0  0  0
   15.9006   35.1931   36.8094 N   0  0  0  0  0  0  0  0  0  0  0  0
    9.8214   44.9850   32.1453 H   0  0  0  0  0  0  0  0  0  0  0  0
   11.0761   46.3256   34.4882 H   0  0  0  0  0  0  0  0  0  0  0  0
   10.9429   46.8847   32.9012 H   0  0  0  0  0  0  0  0  0  0  0  0
    8.7575   45.7928   34.9488 H   0  0  0  0  0  0  0  0  0  0  0  0
    7.8253   44.9017   33.7025 H   0  0  0  0  0  0  0  0  0  0  0  0
    8.7797   50.2049   33.8386 H   0  0  0  0  0  0  0  0  0  0  0  0
    8.4131   49.4912   32.2536 H   0  0  0  0  0  0  0  0  0  0  0  0
    6.1431   49.1689   31.5641 H   0  0  0  0  0  0  0  0  0  0  0  0
    4.4579   50.6993   35.9671 H   0  0  0  0  0  0  0  0  0  0  0  0
    3.7483   49.6056   31.8924 H   0  0  0  0  0  0  0  0  0  0  0  0
    2.9082   50.3821   34.0855 H   0  0  0  0  0  0  0  0  0  0  0  0
    9.8250   40.7188   31.7591 H   0  0  0  0  0  0  0  0  0  0  0  0
   11.3817   41.5526   31.4737 H   0  0  0  0  0  0  0  0  0  0  0  0
   11.7318   39.5337   30.3520 H   0  0  0  0  0  0  0  0  0  0  0  0
   10.1214   38.2682   32.6413 H   0  0  0  0  0  0  0  0  0  0  0  0
   13.6882   37.4709   31.2319 H   0  0  0  0  0  0  0  0  0  0  0  0
   10.0256   38.1751   29.7656 H   0  0  0  0  0  0  0  0  0  0  0  0
   11.2796   36.3123   32.4915 H   0  0  0  0  0  0  0  0  0  0  0  0
   11.9872   36.9099   29.7715 H   0  0  0  0  0  0  0  0  0  0  0  0
   12.3365   38.3595   34.7454 H   0  0  0  0  0  0  0  0  0  0  0  0
   16.7576   34.1794   32.4622 H   0  0  0  0  0  0  0  0  0  0  0  0
   16.6368   34.5315   37.1418 H   0  0  0  0  0  0  0  0  0  0  0  0
   15.3532   35.7351   37.5143 H   0  0  0  0  0  0  0  0  0  0  0  0
  1  2  2  0
  1  3  1  0
  3  4  1  0
  4  5  1  0
  6  1  1  0
  7  6  1  0
  6  8  1  0
  8  9  1  0
  9 10  1  0
  9 11  2  0
 10 12  1  0
 12 13  1  0
 13 14  2  0
 15 13  1  0
 14 16  1  0
 14 17  1  0
 18 15  2  0
 16 19  1  0
 16 20  2  0
 17 21  2  0
 21 18  1  0
  4 22  2  0
  4 23  1  0
 24 23  1  0
 24 25  1  0
 25 26  1  0
 25 27  1  0
 26 28  1  0
 27 29  1  0
 27 30  1  0
 30 28  1  0
 28 31  1  0
 30 32  1  0
 33 31  1  0
 34 31  1  0
 35 33  2  0
 33 36  1  0
 37 34  2  0
 38 35  1  0
 36 39  2  0
 36 37  1  0
 40 38  2  0
 40 39  1  0
 39 41  1  0
  6 42  1  6
  7 43  1  0
  7 44  1  0
  8 45  1  0
  8 46  1  0
 12 47  1  0
 12 48  1  0
 15 49  1  0
 17 50  1  0
 18 51  1  0
 21 52  1  0
 24 53  1  0
 24 54  1  0
 25 55  1  0
 27 56  1  0
 28 57  1  0
 29 58  1  0
 30 59  1  0
 32 60  1  0
 34 61  1  0
 38 62  1  0
 41 63  1  0
 41 64  1  0
M  CHG  3   5  -1  16   1  19  -1
M  END
>  <EmbedRMS>  (445) 
0.08670352536891594

$$$$

     RDKit          3D

 64 67  0  0  0  0  0  0  0  0999 V2000
   10.2888   43.7676   33.8056 C   0  0  0  0  0  0  0  0  0  0  0  0
   11.4120   43.5785   34.3585 O   0  0  0  0  0  0  0  0  0  0  0  0
    9.3668   42.7301   33.7005 O   0  0  0  0  0  0  0  0  0  0  0  0
    9.8841   41.2328   34.2837 P   0  0  0  0  0  5  0  0  0  0  0  0
   10.3654   41.4679   35.8738 O   0  0  0  0  0  1  0  0  0  0  0  0
    9.9611   45.1139   33.2520 C   0  0  2  0  0  0  0  0  0  0  0  0
   11.0632   46.0525   33.4749 N   0  0  0  0  0  0  0  0  0  0  0  0
    8.6462   45.6744   33.8318 C   0  0  0  0  0  0  0  0  0  0  0  0
    8.6166   45.6518   35.3320 C   0  0  0  0  0  0  0  0  0  0  0  0
    9.2699   46.6558   36.0546 O   0  0  0  0  0  0  0  0  0  0  0  0
    8.0382   44.7031   35.9288 O   0  0  0  0  0  0  0  0  0  0  0  0
    9.4995   46.5764   37.4598 C   0  0  0  0  0  0  0  0  0  0  0  0
   10.5680   45.5461   37.7483 C   0  0  0  0  0  0  0  0  0  0  0  0
   10.2822   44.2753   38.3131 C   0  0  0  0  0  0  0  0  0  0  0  0
   11.8785   45.8250   37.3217 C   0  0  0  0  0  0  0  0  0  0  0  0
    8.9767   43.9384   38.8028 N   0  0  0  0  0  4  0  0  0  0  0  0
   11.3045   43.3161   38.4024 C   0  0  0  0  0  0  0  0  0  0  0  0
   12.8847   44.8645   37.4320 C   0  0  0  0  0  0  0  0  0  0  0  0
    8.4646   42.6841   38.5648 O   0  0  0  0  0  1  0  0  0  0  0  0
    8.4263   44.6612   39.6583 O   0  0  0  0  0  0  0  0  0  0  0  0
   12.5965   43.6094   37.9648 C   0  0  0  0  0  0  0  0  0  0  0  0
    8.8062   40.1905   34.2085 O   0  0  0  0  0  0  0  0  0  0  0  0
   11.2359   40.7895   33.3667 O   0  0  0  0  0  0  0  0  0  0  0  0
   10.9133   40.6842   31.9937 C   0  0  0  0  0  0  0  0  0  0  0  0
   11.5174   39.3774   31.4398 C   0  0  0  0  0  0  0  0  0  0  0  0
   12.7476   39.0870   32.0759 O   0  0  0  0  0  0  0  0  0  0  0  0
   10.6070   38.1851   31.6657 C   0  0  0  0  0  0  0  0  0  0  0  0
   12.9373   37.6812   32.0291 C   0  0  0  0  0  0  0  0  0  0  0  0
    9.6404   38.0884   30.6475 O   0  0  0  0  0  0  0  0  0  0  0  0
   11.5790   37.0134   31.7042 C   0  0  0  0  0  0  0  0  0  0  0  0
   13.4914   37.2182   33.3240 N   0  0  0  0  0  0  0  0  0  0  0  0
   11.6126   36.3392   30.4669 O   0  0  0  0  0  0  0  0  0  0  0  0
   14.4762   36.3270   33.5731 C   0  0  0  0  0  0  0  0  0  0  0  0
   13.1187   37.6321   34.5691 C   0  0  0  0  0  0  0  0  0  0  0  0
   15.2064   35.6138   32.6741 N   0  0  0  0  0  0  0  0  0  0  0  0
   14.6733   36.2273   34.9185 C   0  0  0  0  0  0  0  0  0  0  0  0
   13.8229   37.0458   35.5786 N   0  0  0  0  0  0  0  0  0  0  0  0
   16.1637   34.7594   33.1548 C   0  0  0  0  0  0  0  0  0  0  0  0
   15.6516   35.3491   35.4133 C   0  0  0  0  0  0  0  0  0  0  0  0
   16.3792   34.6310   34.5043 N   0  0  0  0  0  0  0  0  0  0  0  0
   15.9006   35.1933   36.8091 N   0  0  0  0  0  0  0  0  0  0  0  0
    9.8209   45.0010   32.1544 H   0  0  0  0  0  0  0  0  0  0  0  0
   11.3111   46.0931   34.4895 H   0  0  0  0  0  0  0  0  0  0  0  0
   11.9065   45.7233   32.9498 H   0  0  0  0  0  0  0  0  0  0  0  0
    8.5034   46.7194   33.4818 H   0  0  0  0  0  0  0  0  0  0  0  0
    7.7913   45.0798   33.4407 H   0  0  0  0  0  0  0  0  0  0  0  0
    9.8530   47.5675   37.8149 H   0  0  0  0  0  0  0  0  0  0  0  0
    8.5423   46.3785   37.9787 H   0  0  0  0  0  0  0  0  0  0  0  0
   12.1155   46.7844   36.8779 H   0  0  0  0  0  0  0  0  0  0  0  0
   11.1013   42.3408   38.8266 H   0  0  0  0  0  0  0  0  0  0  0  0
   13.8869   45.0899   37.0914 H   0  0  0  0  0  0  0  0  0  0  0  0
   13.3765   42.8631   38.0427 H   0  0  0  0  0  0  0  0  0  0  0  0
    9.8232   40.7188   31.7572 H   0  0  0  0  0  0  0  0  0  0  0  0
   11.3852   41.5415   31.4679 H   0  0  0  0  0  0  0  0  0  0  0  0
   11.7009   39.5023   30.3475 H   0  0  0  0  0  0  0  0  0  0  0  0
   10.1099   38.2746   32.6606 H   0  0  0  0  0  0  0  0  0  0  0  0
   13.6716   37.4596   31.2229 H   0  0  0  0  0  0  0  0  0  0  0  0
    9.0030   37.3840   30.9350 H   0  0  0  0  0  0  0  0  0  0  0  0
   11.2710   36.3046   32.5084 H   0  0  0  0  0  0  0  0  0  0  0  0
   12.1435   35.5134   30.6134 H   0  0  0  0  0  0  0  0  0  0  0  0
   12.3372   38.3604   34.7445 H   0  0  0  0  0  0  0  0  0  0  0  0
   16.7574   34.1791   32.4621 H   0  0  0  0  0  0  0  0  0  0  0  0
   16.6364   34.5313   37.1414 H   0  0  0  0  0  0  0  0  0  0  0  0
   15.3536   35.7355   37.5141 H   0  0  0  0  0  0  0  0  0  0  0  0
  1  2  2  0
  1  3  1  0
  3  4  1  0
  4  5  1  0
  6  1  1  0
  7  6  1  0
  6  8  1  0
  8  9  1  0
  9 10  1  0
  9 11  2  0
 10 12  1  0
 12 13  1  0
 13 14  2  0
 15 13  1  0
 14 16  1  0
 14 17  1  0
 18 15  2  0
 16 19  1  0
 16 20  2  0
 17 21  2  0
 21 18  1  0
  4 22  2  0
  4 23  1  0
 24 23  1  0
 24 25  1  0
 25 26  1  0
 25 27  1  0
 26 28  1  0
 27 29  1  0
 27 30  1  0
 30 28  1  0
 28 31  1  0
 30 32  1  0
 33 31  1  0
 34 31  1  0
 35 33  2  0
 33 36  1  0
 37 34  2  0
 38 35  1  0
 36 39  2  0
 36 37  1  0
 40 38  2  0
 40 39  1  0
 39 41  1  0
  6 42  1  6
  7 43  1  0
  7 44  1  0
  8 45  1  0
  8 46  1  0
 12 47  1  0
 12 48  1  0
 15 49  1  0
 17 50  1  0
 18 51  1  0
 21 52  1  0
 24 53  1  0
 24 54  1  0
 25 55  1  0
 27 56  1  0
 28 57  1  0
 29 58  1  0
 30 59  1  0
 32 60  1  0
 34 61  1  0
 38 62  1  0
 41 63  1  0
 41 64  1  0
M  CHG  3   5  -1  16   1  19  -1
M  END
>  <EmbedRMS>  (446) 
0.08942645067882136

$$$$

     RDKit          3D

 64 67  0  0  0  0  0  0  0  0999 V2000
   10.2829   43.7754   33.8075 C   0  0  0  0  0  0  0  0  0  0  0  0
   11.4086   43.5914   34.3577 O   0  0  0  0  0  0  0  0  0  0  0  0
    9.3669   42.7317   33.7011 O   0  0  0  0  0  0  0  0  0  0  0  0
    9.8864   41.2344   34.2838 P   0  0  0  0  0  5  0  0  0  0  0  0
   10.3666   41.4694   35.8744 O   0  0  0  0  0  1  0  0  0  0  0  0
    9.9534   45.1117   33.2435 C   0  0  2  0  0  0  0  0  0  0  0  0
   11.0725   46.0268   33.4848 N   0  0  0  0  0  0  0  0  0  0  0  0
    8.6401   45.6439   33.8548 C   0  0  0  0  0  0  0  0  0  0  0  0
    8.2244   46.9355   33.2228 C   0  0  0  0  0  0  0  0  0  0  0  0
    8.5464   48.1442   33.8506 O   0  0  0  0  0  0  0  0  0  0  0  0
    7.6182   46.9248   32.1166 O   0  0  0  0  0  0  0  0  0  0  0  0
    8.1927   49.4197   33.3161 C   0  0  0  0  0  0  0  0  0  0  0  0
    6.7014   49.6676   33.4050 C   0  0  0  0  0  0  0  0  0  0  0  0
    6.0133   50.4367   32.4302 C   0  0  0  0  0  0  0  0  0  0  0  0
    5.9802   49.1424   34.4950 C   0  0  0  0  0  0  0  0  0  0  0  0
    6.7109   51.0942   31.3588 N   0  0  0  0  0  4  0  0  0  0  0  0
    4.6172   50.5783   32.5261 C   0  0  0  0  0  0  0  0  0  0  0  0
    4.5976   49.3103   34.5823 C   0  0  0  0  0  0  0  0  0  0  0  0
    7.8764   51.7810   31.6099 O   0  0  0  0  0  1  0  0  0  0  0  0
    6.1669   51.2203   30.2422 O   0  0  0  0  0  0  0  0  0  0  0  0
    3.9157   50.0162   33.5933 C   0  0  0  0  0  0  0  0  0  0  0  0
    8.8090   40.1914   34.2078 O   0  0  0  0  0  0  0  0  0  0  0  0
   11.2387   40.7910   33.3680 O   0  0  0  0  0  0  0  0  0  0  0  0
   10.9187   40.6889   31.9945 C   0  0  0  0  0  0  0  0  0  0  0  0
   11.5180   39.3800   31.4397 C   0  0  0  0  0  0  0  0  0  0  0  0
   12.7483   39.0876   32.0750 O   0  0  0  0  0  0  0  0  0  0  0  0
   10.6053   38.1875   31.6656 C   0  0  0  0  0  0  0  0  0  0  0  0
   12.9361   37.6816   32.0288 C   0  0  0  0  0  0  0  0  0  0  0  0
    9.6423   38.0738   30.6445 O   0  0  0  0  0  0  0  0  0  0  0  0
   11.5765   37.0158   31.7046 C   0  0  0  0  0  0  0  0  0  0  0  0
   13.4908   37.2183   33.3237 N   0  0  0  0  0  0  0  0  0  0  0  0
   11.6102   36.3399   30.4680 O   0  0  0  0  0  0  0  0  0  0  0  0
   14.4762   36.3273   33.5728 C   0  0  0  0  0  0  0  0  0  0  0  0
   13.1181   37.6318   34.5689 C   0  0  0  0  0  0  0  0  0  0  0  0
   15.2063   35.6141   32.6739 N   0  0  0  0  0  0  0  0  0  0  0  0
   14.6733   36.2275   34.9182 C   0  0  0  0  0  0  0  0  0  0  0  0
   13.8226   37.0457   35.5783 N   0  0  0  0  0  0  0  0  0  0  0  0
   16.1635   34.7595   33.1546 C   0  0  0  0  0  0  0  0  0  0  0  0
   15.6515   35.3492   35.4130 C   0  0  0  0  0  0  0  0  0  0  0  0
   16.3791   34.6310   34.5041 N   0  0  0  0  0  0  0  0  0  0  0  0
   15.9002   35.1933   36.8089 N   0  0  0  0  0  0  0  0  0  0  0  0
    9.8204   44.9854   32.1458 H   0  0  0  0  0  0  0  0  0  0  0  0
   11.0775   46.3244   34.4884 H   0  0  0  0  0  0  0  0  0  0  0  0
   10.9419   46.8853   32.9022 H   0  0  0  0  0  0  0  0  0  0  0  0
    7.8251   44.9025   33.7032 H   0  0  0  0  0  0  0  0  0  0  0  0
    8.7584   45.7909   34.9507 H   0  0  0  0  0  0  0  0  0  0  0  0
    8.7172   50.2063   33.8973 H   0  0  0  0  0  0  0  0  0  0  0  0
    8.5499   49.4675   32.2657 H   0  0  0  0  0  0  0  0  0  0  0  0
    6.4856   48.5869   35.2751 H   0  0  0  0  0  0  0  0  0  0  0  0
    4.0733   51.1513   31.7857 H   0  0  0  0  0  0  0  0  0  0  0  0
    4.0534   48.8888   35.4176 H   0  0  0  0  0  0  0  0  0  0  0  0
    2.8429   50.1425   33.6619 H   0  0  0  0  0  0  0  0  0  0  0  0
   11.3986   41.5435   31.4716 H   0  0  0  0  0  0  0  0  0  0  0  0
    9.8306   40.7372   31.7553 H   0  0  0  0  0  0  0  0  0  0  0  0
   11.7002   39.5044   30.3473 H   0  0  0  0  0  0  0  0  0  0  0  0
   10.1104   38.2619   32.6637 H   0  0  0  0  0  0  0  0  0  0  0  0
   13.6696   37.4587   31.2223 H   0  0  0  0  0  0  0  0  0  0  0  0
    8.8999   38.6880   30.8815 H   0  0  0  0  0  0  0  0  0  0  0  0
   11.2690   36.3069   32.5091 H   0  0  0  0  0  0  0  0  0  0  0  0
   12.1427   35.5151   30.6153 H   0  0  0  0  0  0  0  0  0  0  0  0
   12.3359   38.3593   34.7445 H   0  0  0  0  0  0  0  0  0  0  0  0
   16.7569   34.1789   32.4618 H   0  0  0  0  0  0  0  0  0  0  0  0
   16.6362   34.5315   37.1413 H   0  0  0  0  0  0  0  0  0  0  0  0
   15.3530   35.7356   37.5138 H   0  0  0  0  0  0  0  0  0  0  0  0
  1  2  2  0
  1  3  1  0
  3  4  1  0
  4  5  1  0
  6  1  1  0
  7  6  1  0
  6  8  1  0
  8  9  1  0
  9 10  1  0
  9 11  2  0
 10 12  1  0
 12 13  1  0
 13 14  2  0
 15 13  1  0
 14 16  1  0
 14 17  1  0
 18 15  2  0
 16 19  1  0
 16 20  2  0
 17 21  2  0
 21 18  1  0
  4 22  2  0
  4 23  1  0
 24 23  1  0
 24 25  1  0
 25 26  1  0
 25 27  1  0
 26 28  1  0
 27 29  1  0
 27 30  1  0
 30 28  1  0
 28 31  1  0
 30 32  1  0
 33 31  1  0
 34 31  1  0
 35 33  2  0
 33 36  1  0
 37 34  2  0
 38 35  1  0
 36 39  2  0
 36 37  1  0
 40 38  2  0
 40 39  1  0
 39 41  1  0
  6 42  1  6
  7 43  1  0
  7 44  1  0
  8 45  1  0
  8 46  1  0
 12 47  1  0
 12 48  1  0
 15 49  1  0
 17 50  1  0
 18 51  1  0
 21 52  1  0
 24 53  1  0
 24 54  1  0
 25 55  1  0
 27 56  1  0
 28 57  1  0
 29 58  1  0
 30 59  1  0
 32 60  1  0
 34 61  1  0
 38 62  1  0
 41 63  1  0
 41 64  1  0
M  CHG  3   5  -1  16   1  19  -1
M  END
>  <EmbedRMS>  (447) 
0.08904301482814624

$$$$

     RDKit          3D

 64 67  0  0  0  0  0  0  0  0999 V2000
   10.2844   43.7743   33.8069 C   0  0  0  0  0  0  0  0  0  0  0  0
   11.4068   43.5903   34.3637 O   0  0  0  0  0  0  0  0  0  0  0  0
    9.3680   42.7311   33.6988 O   0  0  0  0  0  0  0  0  0  0  0  0
    9.8859   41.2341   34.2835 P   0  0  0  0  0  5  0  0  0  0  0  0
   10.3663   41.4696   35.8741 O   0  0  0  0  0  1  0  0  0  0  0  0
    9.9494   45.1163   33.2545 C   0  0  2  0  0  0  0  0  0  0  0  0
   11.0753   46.0280   33.4732 N   0  0  0  0  0  0  0  0  0  0  0  0
    8.6778   45.6535   33.9413 C   0  0  0  0  0  0  0  0  0  0  0  0
    8.1817   46.9068   33.2884 C   0  0  0  0  0  0  0  0  0  0  0  0
    8.3779   48.1384   33.9229 O   0  0  0  0  0  0  0  0  0  0  0  0
    7.6119   46.8422   32.1656 O   0  0  0  0  0  0  0  0  0  0  0  0
    7.9864   49.3881   33.3559 C   0  0  0  0  0  0  0  0  0  0  0  0
    8.8713   49.7449   32.1828 C   0  0  0  0  0  0  0  0  0  0  0  0
    8.3574   50.1126   30.9105 C   0  0  0  0  0  0  0  0  0  0  0  0
   10.2599   49.8003   32.4009 C   0  0  0  0  0  0  0  0  0  0  0  0
    6.9525   50.0849   30.6185 N   0  0  0  0  0  4  0  0  0  0  0  0
    9.2458   50.5287   29.9045 C   0  0  0  0  0  0  0  0  0  0  0  0
   11.1277   50.1968   31.3827 C   0  0  0  0  0  0  0  0  0  0  0  0
    6.3935   51.0994   29.8763 O   0  0  0  0  0  1  0  0  0  0  0  0
    6.2969   49.0379   30.7945 O   0  0  0  0  0  0  0  0  0  0  0  0
   10.6213   50.5633   30.1373 C   0  0  0  0  0  0  0  0  0  0  0  0
    8.8081   40.1914   34.2081 O   0  0  0  0  0  0  0  0  0  0  0  0
   11.2374   40.7899   33.3677 O   0  0  0  0  0  0  0  0  0  0  0  0
   10.9156   40.6882   31.9947 C   0  0  0  0  0  0  0  0  0  0  0  0
   11.5262   39.3870   31.4363 C   0  0  0  0  0  0  0  0  0  0  0  0
   12.7492   39.0892   32.0818 O   0  0  0  0  0  0  0  0  0  0  0  0
   10.6123   38.1893   31.6461 C   0  0  0  0  0  0  0  0  0  0  0  0
   12.9374   37.6826   32.0301 C   0  0  0  0  0  0  0  0  0  0  0  0
    9.6150   38.0838   30.6538 O   0  0  0  0  0  0  0  0  0  0  0  0
   11.5793   37.0136   31.7014 C   0  0  0  0  0  0  0  0  0  0  0  0
   13.4906   37.2169   33.3242 N   0  0  0  0  0  0  0  0  0  0  0  0
   11.6216   36.3252   30.4725 O   0  0  0  0  0  0  0  0  0  0  0  0
   14.4763   36.3266   33.5731 C   0  0  0  0  0  0  0  0  0  0  0  0
   13.1181   37.6308   34.5694 C   0  0  0  0  0  0  0  0  0  0  0  0
   15.2066   35.6137   32.6740 N   0  0  0  0  0  0  0  0  0  0  0  0
   14.6736   36.2270   34.9185 C   0  0  0  0  0  0  0  0  0  0  0  0
   13.8229   37.0450   35.5787 N   0  0  0  0  0  0  0  0  0  0  0  0
   16.1639   34.7593   33.1547 C   0  0  0  0  0  0  0  0  0  0  0  0
   15.6519   35.3489   35.4132 C   0  0  0  0  0  0  0  0  0  0  0  0
   16.3795   34.6308   34.5042 N   0  0  0  0  0  0  0  0  0  0  0  0
   15.9006   35.1931   36.8090 N   0  0  0  0  0  0  0  0  0  0  0  0
    9.7647   45.0042   32.1618 H   0  0  0  0  0  0  0  0  0  0  0  0
   10.8453   46.9531   33.0453 H   0  0  0  0  0  0  0  0  0  0  0  0
   11.8960   45.6765   32.9267 H   0  0  0  0  0  0  0  0  0  0  0  0
    7.8656   44.8957   33.8884 H   0  0  0  0  0  0  0  0  0  0  0  0
    8.8845   45.8519   35.0160 H   0  0  0  0  0  0  0  0  0  0  0  0
    6.9082   49.3622   33.1069 H   0  0  0  0  0  0  0  0  0  0  0  0
    8.1076   50.1742   34.1305 H   0  0  0  0  0  0  0  0  0  0  0  0
   10.6717   49.5447   33.3698 H   0  0  0  0  0  0  0  0  0  0  0  0
    8.8704   50.8130   28.9294 H   0  0  0  0  0  0  0  0  0  0  0  0
   12.1943   50.2307   31.5638 H   0  0  0  0  0  0  0  0  0  0  0  0
   11.2954   50.8769   29.3508 H   0  0  0  0  0  0  0  0  0  0  0  0
   11.3829   41.5503   31.4724 H   0  0  0  0  0  0  0  0  0  0  0  0
    9.8254   40.7180   31.7578 H   0  0  0  0  0  0  0  0  0  0  0  0
   11.7292   39.5285   30.3502 H   0  0  0  0  0  0  0  0  0  0  0  0
   10.1140   38.2719   32.6379 H   0  0  0  0  0  0  0  0  0  0  0  0
   13.6726   37.4635   31.2240 H   0  0  0  0  0  0  0  0  0  0  0  0
   10.0535   38.1085   29.7638 H   0  0  0  0  0  0  0  0  0  0  0  0
   11.2646   36.3134   32.5107 H   0  0  0  0  0  0  0  0  0  0  0  0
   12.1549   35.5032   30.6315 H   0  0  0  0  0  0  0  0  0  0  0  0
   12.3362   38.3586   34.7450 H   0  0  0  0  0  0  0  0  0  0  0  0
   16.7573   34.1788   32.4619 H   0  0  0  0  0  0  0  0  0  0  0  0
   16.6366   34.5314   37.1415 H   0  0  0  0  0  0  0  0  0  0  0  0
   15.3533   35.7353   37.5139 H   0  0  0  0  0  0  0  0  0  0  0  0
  1  2  2  0
  1  3  1  0
  3  4  1  0
  4  5  1  0
  6  1  1  0
  7  6  1  0
  6  8  1  0
  8  9  1  0
  9 10  1  0
  9 11  2  0
 10 12  1  0
 12 13  1  0
 13 14  2  0
 15 13  1  0
 14 16  1  0
 14 17  1  0
 18 15  2  0
 16 19  1  0
 16 20  2  0
 17 21  2  0
 21 18  1  0
  4 22  2  0
  4 23  1  0
 24 23  1  0
 24 25  1  0
 25 26  1  0
 25 27  1  0
 26 28  1  0
 27 29  1  0
 27 30  1  0
 30 28  1  0
 28 31  1  0
 30 32  1  0
 33 31  1  0
 34 31  1  0
 35 33  2  0
 33 36  1  0
 37 34  2  0
 38 35  1  0
 36 39  2  0
 36 37  1  0
 40 38  2  0
 40 39  1  0
 39 41  1  0
  6 42  1  6
  7 43  1  0
  7 44  1  0
  8 45  1  0
  8 46  1  0
 12 47  1  0
 12 48  1  0
 15 49  1  0
 17 50  1  0
 18 51  1  0
 21 52  1  0
 24 53  1  0
 24 54  1  0
 25 55  1  0
 27 56  1  0
 28 57  1  0
 29 58  1  0
 30 59  1  0
 32 60  1  0
 34 61  1  0
 38 62  1  0
 41 63  1  0
 41 64  1  0
M  CHG  3   5  -1  16   1  19  -1
M  END
>  <EmbedRMS>  (448) 
0.0879948573928266

$$$$

     RDKit          3D

 64 67  0  0  0  0  0  0  0  0999 V2000
   10.2872   43.7711   33.8021 C   0  0  0  0  0  0  0  0  0  0  0  0
   11.4094   43.5877   34.3592 O   0  0  0  0  0  0  0  0  0  0  0  0
    9.3680   42.7306   33.6980 O   0  0  0  0  0  0  0  0  0  0  0  0
    9.8852   41.2342   34.2842 P   0  0  0  0  0  5  0  0  0  0  0  0
   10.3653   41.4712   35.8746 O   0  0  0  0  0  1  0  0  0  0  0  0
    9.9519   45.1156   33.2557 C   0  0  2  0  0  0  0  0  0  0  0  0
   11.0707   46.0335   33.4778 N   0  0  0  0  0  0  0  0  0  0  0  0
    8.6625   45.6648   33.8996 C   0  0  0  0  0  0  0  0  0  0  0  0
    8.7963   45.8358   35.3837 C   0  0  0  0  0  0  0  0  0  0  0  0
    8.5577   44.7425   36.2245 O   0  0  0  0  0  0  0  0  0  0  0  0
    9.1582   46.9473   35.8577 O   0  0  0  0  0  0  0  0  0  0  0  0
    8.6896   44.8045   37.6441 C   0  0  0  0  0  0  0  0  0  0  0  0
    7.5852   45.6290   38.2709 C   0  0  0  0  0  0  0  0  0  0  0  0
    7.8006   46.3933   39.4475 C   0  0  0  0  0  0  0  0  0  0  0  0
    6.3034   45.6198   37.6870 C   0  0  0  0  0  0  0  0  0  0  0  0
    9.0521   46.3529   40.1540 N   0  0  0  0  0  4  0  0  0  0  0  0
    6.7577   47.1933   39.9484 C   0  0  0  0  0  0  0  0  0  0  0  0
    5.2760   46.4058   38.2105 C   0  0  0  0  0  0  0  0  0  0  0  0
    9.6821   45.1504   40.3785 O   0  0  0  0  0  1  0  0  0  0  0  0
    9.4724   47.3712   40.7415 O   0  0  0  0  0  0  0  0  0  0  0  0
    5.5062   47.2006   39.3315 C   0  0  0  0  0  0  0  0  0  0  0  0
    8.8074   40.1916   34.2090 O   0  0  0  0  0  0  0  0  0  0  0  0
   11.2368   40.7892   33.3686 O   0  0  0  0  0  0  0  0  0  0  0  0
   10.9154   40.6881   31.9953 C   0  0  0  0  0  0  0  0  0  0  0  0
   11.5261   39.3871   31.4366 C   0  0  0  0  0  0  0  0  0  0  0  0
   12.7492   39.0893   32.0819 O   0  0  0  0  0  0  0  0  0  0  0  0
   10.6123   38.1893   31.6462 C   0  0  0  0  0  0  0  0  0  0  0  0
   12.9373   37.6827   32.0301 C   0  0  0  0  0  0  0  0  0  0  0  0
    9.6150   38.0839   30.6538 O   0  0  0  0  0  0  0  0  0  0  0  0
   11.5793   37.0136   31.7014 C   0  0  0  0  0  0  0  0  0  0  0  0
   13.4906   37.2169   33.3242 N   0  0  0  0  0  0  0  0  0  0  0  0
   11.6216   36.3252   30.4725 O   0  0  0  0  0  0  0  0  0  0  0  0
   14.4763   36.3266   33.5731 C   0  0  0  0  0  0  0  0  0  0  0  0
   13.1181   37.6308   34.5694 C   0  0  0  0  0  0  0  0  0  0  0  0
   15.2065   35.6137   32.6740 N   0  0  0  0  0  0  0  0  0  0  0  0
   14.6735   36.2270   34.9185 C   0  0  0  0  0  0  0  0  0  0  0  0
   13.8229   37.0451   35.5787 N   0  0  0  0  0  0  0  0  0  0  0  0
   16.1639   34.7593   33.1547 C   0  0  0  0  0  0  0  0  0  0  0  0
   15.6519   35.3489   35.4132 C   0  0  0  0  0  0  0  0  0  0  0  0
   16.3795   34.6308   34.5042 N   0  0  0  0  0  0  0  0  0  0  0  0
   15.9006   35.1931   36.8090 N   0  0  0  0  0  0  0  0  0  0  0  0
    9.7775   45.0097   32.1613 H   0  0  0  0  0  0  0  0  0  0  0  0
   10.8084   46.9725   33.0986 H   0  0  0  0  0  0  0  0  0  0  0  0
   11.8805   45.7138   32.8966 H   0  0  0  0  0  0  0  0  0  0  0  0
    8.4041   46.6421   33.4367 H   0  0  0  0  0  0  0  0  0  0  0  0
    7.8158   44.9756   33.6900 H   0  0  0  0  0  0  0  0  0  0  0  0
    9.6916   45.2199   37.8823 H   0  0  0  0  0  0  0  0  0  0  0  0
    8.6357   43.7732   38.0508 H   0  0  0  0  0  0  0  0  0  0  0  0
    6.0992   45.0136   36.8132 H   0  0  0  0  0  0  0  0  0  0  0  0
    6.9066   47.7924   40.8379 H   0  0  0  0  0  0  0  0  0  0  0  0
    4.2997   46.4008   37.7432 H   0  0  0  0  0  0  0  0  0  0  0  0
    4.7084   47.8115   39.7338 H   0  0  0  0  0  0  0  0  0  0  0  0
    9.8253   40.7180   31.7583 H   0  0  0  0  0  0  0  0  0  0  0  0
   11.3830   41.5504   31.4735 H   0  0  0  0  0  0  0  0  0  0  0  0
   11.7290   39.5289   30.3505 H   0  0  0  0  0  0  0  0  0  0  0  0
   10.1139   38.2718   32.6380 H   0  0  0  0  0  0  0  0  0  0  0  0
   13.6726   37.4636   31.2240 H   0  0  0  0  0  0  0  0  0  0  0  0
   10.0536   38.1086   29.7639 H   0  0  0  0  0  0  0  0  0  0  0  0
   11.2646   36.3134   32.5107 H   0  0  0  0  0  0  0  0  0  0  0  0
   12.1549   35.5032   30.6315 H   0  0  0  0  0  0  0  0  0  0  0  0
   12.3362   38.3586   34.7450 H   0  0  0  0  0  0  0  0  0  0  0  0
   16.7573   34.1788   32.4619 H   0  0  0  0  0  0  0  0  0  0  0  0
   15.3533   35.7353   37.5139 H   0  0  0  0  0  0  0  0  0  0  0  0
   16.6366   34.5314   37.1415 H   0  0  0  0  0  0  0  0  0  0  0  0
  1  2  2  0
  1  3  1  0
  3  4  1  0
  4  5  1  0
  6  1  1  0
  7  6  1  0
  6  8  1  0
  8  9  1  0
  9 10  1  0
  9 11  2  0
 10 12  1  0
 12 13  1  0
 13 14  2  0
 15 13  1  0
 14 16  1  0
 14 17  1  0
 18 15  2  0
 16 19  1  0
 16 20  2  0
 17 21  2  0
 21 18  1  0
  4 22  2  0
  4 23  1  0
 24 23  1  0
 24 25  1  0
 25 26  1  0
 25 27  1  0
 26 28  1  0
 27 29  1  0
 27 30  1  0
 30 28  1  0
 28 31  1  0
 30 32  1  0
 33 31  1  0
 34 31  1  0
 35 33  2  0
 33 36  1  0
 37 34  2  0
 38 35  1  0
 36 39  2  0
 36 37  1  0
 40 38  2  0
 40 39  1  0
 39 41  1  0
  6 42  1  6
  7 43  1  0
  7 44  1  0
  8 45  1  0
  8 46  1  0
 12 47  1  0
 12 48  1  0
 15 49  1  0
 17 50  1  0
 18 51  1  0
 21 52  1  0
 24 53  1  0
 24 54  1  0
 25 55  1  0
 27 56  1  0
 28 57  1  0
 29 58  1  0
 30 59  1  0
 32 60  1  0
 34 61  1  0
 38 62  1  0
 41 63  1  0
 41 64  1  0
M  CHG  3   5  -1  16   1  19  -1
M  END
>  <EmbedRMS>  (449) 
0.08793960715078353

$$$$

     RDKit          3D

 64 67  0  0  0  0  0  0  0  0999 V2000
   10.2872   43.7712   33.8022 C   0  0  0  0  0  0  0  0  0  0  0  0
   11.4094   43.5877   34.3592 O   0  0  0  0  0  0  0  0  0  0  0  0
    9.3678   42.7307   33.6982 O   0  0  0  0  0  0  0  0  0  0  0  0
    9.8849   41.2345   34.2847 P   0  0  0  0  0  5  0  0  0  0  0  0
   10.3649   41.4714   35.8752 O   0  0  0  0  0  1  0  0  0  0  0  0
    9.9519   45.1156   33.2558 C   0  0  2  0  0  0  0  0  0  0  0  0
   11.0707   46.0335   33.4778 N   0  0  0  0  0  0  0  0  0  0  0  0
    8.6625   45.6649   33.8997 C   0  0  0  0  0  0  0  0  0  0  0  0
    8.7962   45.8354   35.3838 C   0  0  0  0  0  0  0  0  0  0  0  0
    8.5574   44.7419   36.2243 O   0  0  0  0  0  0  0  0  0  0  0  0
    9.1579   46.9469   35.8583 O   0  0  0  0  0  0  0  0  0  0  0  0
    8.6891   44.8035   37.6440 C   0  0  0  0  0  0  0  0  0  0  0  0
    7.5832   45.6254   38.2728 C   0  0  0  0  0  0  0  0  0  0  0  0
    7.7914   46.3721   39.4633 C   0  0  0  0  0  0  0  0  0  0  0  0
    6.3059   45.6298   37.6789 C   0  0  0  0  0  0  0  0  0  0  0  0
    9.0353   46.3235   40.1825 N   0  0  0  0  0  4  0  0  0  0  0  0
    6.7488   47.1704   39.9651 C   0  0  0  0  0  0  0  0  0  0  0  0
    5.2778   46.4133   38.2047 C   0  0  0  0  0  0  0  0  0  0  0  0
    9.4731   47.4313   40.8713 O   0  0  0  0  0  1  0  0  0  0  0  0
    9.6158   45.2337   40.3659 O   0  0  0  0  0  0  0  0  0  0  0  0
    5.5025   47.1919   39.3380 C   0  0  0  0  0  0  0  0  0  0  0  0
    8.8074   40.1916   34.2092 O   0  0  0  0  0  0  0  0  0  0  0  0
   11.2367   40.7898   33.3695 O   0  0  0  0  0  0  0  0  0  0  0  0
   10.9156   40.6897   31.9963 C   0  0  0  0  0  0  0  0  0  0  0  0
   11.5270   39.3898   31.4375 C   0  0  0  0  0  0  0  0  0  0  0  0
   12.7508   39.0916   32.0838 O   0  0  0  0  0  0  0  0  0  0  0  0
   10.6122   38.1916   31.6452 C   0  0  0  0  0  0  0  0  0  0  0  0
   12.9429   37.6852   32.0295 C   0  0  0  0  0  0  0  0  0  0  0  0
    9.6070   38.0858   30.6603 O   0  0  0  0  0  0  0  0  0  0  0  0
   11.5845   37.0186   31.6880 C   0  0  0  0  0  0  0  0  0  0  0  0
   13.4899   37.2163   33.3250 N   0  0  0  0  0  0  0  0  0  0  0  0
   11.6201   36.3063   30.4693 O   0  0  0  0  0  0  0  0  0  0  0  0
   14.4759   36.3263   33.5739 C   0  0  0  0  0  0  0  0  0  0  0  0
   13.1175   37.6307   34.5699 C   0  0  0  0  0  0  0  0  0  0  0  0
   15.2065   35.6139   32.6746 N   0  0  0  0  0  0  0  0  0  0  0  0
   14.6731   36.2267   34.9191 C   0  0  0  0  0  0  0  0  0  0  0  0
   13.8224   37.0450   35.5792 N   0  0  0  0  0  0  0  0  0  0  0  0
   16.1640   34.7596   33.1551 C   0  0  0  0  0  0  0  0  0  0  0  0
   15.6517   35.3489   35.4136 C   0  0  0  0  0  0  0  0  0  0  0  0
   16.3795   34.6310   34.5046 N   0  0  0  0  0  0  0  0  0  0  0  0
   15.9006   35.1931   36.8094 N   0  0  0  0  0  0  0  0  0  0  0  0
    9.7774   45.0098   32.1613 H   0  0  0  0  0  0  0  0  0  0  0  0
   10.8084   46.9726   33.0986 H   0  0  0  0  0  0  0  0  0  0  0  0
   11.8804   45.7138   32.8966 H   0  0  0  0  0  0  0  0  0  0  0  0
    8.4043   46.6423   33.4370 H   0  0  0  0  0  0  0  0  0  0  0  0
    7.8157   44.9759   33.6898 H   0  0  0  0  0  0  0  0  0  0  0  0
    9.6903   45.2209   37.8821 H   0  0  0  0  0  0  0  0  0  0  0  0
    8.6377   43.7719   38.0500 H   0  0  0  0  0  0  0  0  0  0  0  0
    6.1052   45.0362   36.7957 H   0  0  0  0  0  0  0  0  0  0  0  0
    6.8926   47.7569   40.8636 H   0  0  0  0  0  0  0  0  0  0  0  0
    4.3053   46.4190   37.7296 H   0  0  0  0  0  0  0  0  0  0  0  0
    4.7043   47.8013   39.7418 H   0  0  0  0  0  0  0  0  0  0  0  0
    9.8255   40.7191   31.7589 H   0  0  0  0  0  0  0  0  0  0  0  0
   11.3828   41.5526   31.4753 H   0  0  0  0  0  0  0  0  0  0  0  0
   11.7318   39.5340   30.3521 H   0  0  0  0  0  0  0  0  0  0  0  0
   10.1214   38.2682   32.6413 H   0  0  0  0  0  0  0  0  0  0  0  0
   13.6882   37.4707   31.2319 H   0  0  0  0  0  0  0  0  0  0  0  0
   10.0257   38.1751   29.7656 H   0  0  0  0  0  0  0  0  0  0  0  0
   11.2795   36.3123   32.4915 H   0  0  0  0  0  0  0  0  0  0  0  0
   11.9871   36.9099   29.7714 H   0  0  0  0  0  0  0  0  0  0  0  0
   12.3365   38.3595   34.7453 H   0  0  0  0  0  0  0  0  0  0  0  0
   16.7577   34.1795   32.4622 H   0  0  0  0  0  0  0  0  0  0  0  0
   16.6368   34.5316   37.1418 H   0  0  0  0  0  0  0  0  0  0  0  0
   15.3532   35.7351   37.5143 H   0  0  0  0  0  0  0  0  0  0  0  0
  1  2  2  0
  1  3  1  0
  3  4  1  0
  4  5  1  0
  6  1  1  0
  7  6  1  0
  6  8  1  0
  8  9  1  0
  9 10  1  0
  9 11  2  0
 10 12  1  0
 12 13  1  0
 13 14  2  0
 15 13  1  0
 14 16  1  0
 14 17  1  0
 18 15  2  0
 16 19  1  0
 16 20  2  0
 17 21  2  0
 21 18  1  0
  4 22  2  0
  4 23  1  0
 24 23  1  0
 24 25  1  0
 25 26  1  0
 25 27  1  0
 26 28  1  0
 27 29  1  0
 27 30  1  0
 30 28  1  0
 28 31  1  0
 30 32  1  0
 33 31  1  0
 34 31  1  0
 35 33  2  0
 33 36  1  0
 37 34  2  0
 38 35  1  0
 36 39  2  0
 36 37  1  0
 40 38  2  0
 40 39  1  0
 39 41  1  0
  6 42  1  6
  7 43  1  0
  7 44  1  0
  8 45  1  0
  8 46  1  0
 12 47  1  0
 12 48  1  0
 15 49  1  0
 17 50  1  0
 18 51  1  0
 21 52  1  0
 24 53  1  0
 24 54  1  0
 25 55  1  0
 27 56  1  0
 28 57  1  0
 29 58  1  0
 30 59  1  0
 32 60  1  0
 34 61  1  0
 38 62  1  0
 41 63  1  0
 41 64  1  0
M  CHG  3   5  -1  16   1  19  -1
M  END
>  <EmbedRMS>  (450) 
0.08701307814338408

$$$$

     RDKit          3D

 64 67  0  0  0  0  0  0  0  0999 V2000
   10.2844   43.7742   33.8068 C   0  0  0  0  0  0  0  0  0  0  0  0
   11.4069   43.5903   34.3636 O   0  0  0  0  0  0  0  0  0  0  0  0
    9.3681   42.7310   33.6988 O   0  0  0  0  0  0  0  0  0  0  0  0
    9.8860   41.2342   34.2839 P   0  0  0  0  0  5  0  0  0  0  0  0
   10.3656   41.4698   35.8747 O   0  0  0  0  0  1  0  0  0  0  0  0
    9.9492   45.1164   33.2547 C   0  0  2  0  0  0  0  0  0  0  0  0
   11.0753   46.0280   33.4734 N   0  0  0  0  0  0  0  0  0  0  0  0
    8.6780   45.6532   33.9422 C   0  0  0  0  0  0  0  0  0  0  0  0
    8.1785   46.9029   33.2856 C   0  0  0  0  0  0  0  0  0  0  0  0
    8.4673   48.1446   33.8621 O   0  0  0  0  0  0  0  0  0  0  0  0
    7.5355   46.8259   32.2036 O   0  0  0  0  0  0  0  0  0  0  0  0
    7.9986   49.3866   33.3404 C   0  0  0  0  0  0  0  0  0  0  0  0
    6.5289   49.5687   33.6364 C   0  0  0  0  0  0  0  0  0  0  0  0
    6.0599   50.0083   34.9038 C   0  0  0  0  0  0  0  0  0  0  0  0
    5.5998   49.3118   32.6114 C   0  0  0  0  0  0  0  0  0  0  0  0
    6.9579   50.2810   35.9957 N   0  0  0  0  0  4  0  0  0  0  0  0
    4.6785   50.2020   35.0918 C   0  0  0  0  0  0  0  0  0  0  0  0
    4.2334   49.4961   32.8248 C   0  0  0  0  0  0  0  0  0  0  0  0
    8.0376   49.4651   36.2397 O   0  0  0  0  0  1  0  0  0  0  0  0
    6.6743   51.1635   36.8321 O   0  0  0  0  0  0  0  0  0  0  0  0
    3.7740   49.9436   34.0613 C   0  0  0  0  0  0  0  0  0  0  0  0
    8.8086   40.1912   34.2076 O   0  0  0  0  0  0  0  0  0  0  0  0
   11.2387   40.7905   33.3693 O   0  0  0  0  0  0  0  0  0  0  0  0
   10.9192   40.6905   31.9959 C   0  0  0  0  0  0  0  0  0  0  0  0
   11.5177   39.3823   31.4410 C   0  0  0  0  0  0  0  0  0  0  0  0
   12.7496   39.0891   32.0754 O   0  0  0  0  0  0  0  0  0  0  0  0
   10.6037   38.1899   31.6659 C   0  0  0  0  0  0  0  0  0  0  0  0
   12.9401   37.6832   32.0276 C   0  0  0  0  0  0  0  0  0  0  0  0
    9.6377   38.0785   30.6474 O   0  0  0  0  0  0  0  0  0  0  0  0
   11.5803   37.0203   31.6937 C   0  0  0  0  0  0  0  0  0  0  0  0
   13.4902   37.2177   33.3237 N   0  0  0  0  0  0  0  0  0  0  0  0
   11.6117   36.3192   30.4680 O   0  0  0  0  0  0  0  0  0  0  0  0
   14.4759   36.3271   33.5731 C   0  0  0  0  0  0  0  0  0  0  0  0
   13.1176   37.6317   34.5688 C   0  0  0  0  0  0  0  0  0  0  0  0
   15.2064   35.6141   32.6742 N   0  0  0  0  0  0  0  0  0  0  0  0
   14.6729   36.2274   34.9184 C   0  0  0  0  0  0  0  0  0  0  0  0
   13.8221   37.0457   35.5783 N   0  0  0  0  0  0  0  0  0  0  0  0
   16.1637   34.7596   33.1549 C   0  0  0  0  0  0  0  0  0  0  0  0
   15.6514   35.3493   35.4133 C   0  0  0  0  0  0  0  0  0  0  0  0
   16.3791   34.6312   34.5044 N   0  0  0  0  0  0  0  0  0  0  0  0
   15.9001   35.1935   36.8091 N   0  0  0  0  0  0  0  0  0  0  0  0
    9.7636   45.0048   32.1621 H   0  0  0  0  0  0  0  0  0  0  0  0
   10.8454   46.9555   33.0493 H   0  0  0  0  0  0  0  0  0  0  0  0
   11.8952   45.6774   32.9251 H   0  0  0  0  0  0  0  0  0  0  0  0
    8.8861   45.8573   35.0155 H   0  0  0  0  0  0  0  0  0  0  0  0
    7.8675   44.8930   33.8953 H   0  0  0  0  0  0  0  0  0  0  0  0
    8.5765   50.2143   33.8018 H   0  0  0  0  0  0  0  0  0  0  0  0
    8.2026   49.4383   32.2481 H   0  0  0  0  0  0  0  0  0  0  0  0
    5.9340   48.9778   31.6370 H   0  0  0  0  0  0  0  0  0  0  0  0
    4.2984   50.5403   36.0475 H   0  0  0  0  0  0  0  0  0  0  0  0
    3.5298   49.2971   32.0267 H   0  0  0  0  0  0  0  0  0  0  0  0
    2.7137   50.0894   34.2232 H   0  0  0  0  0  0  0  0  0  0  0  0
   11.4002   41.5453   31.4742 H   0  0  0  0  0  0  0  0  0  0  0  0
    9.8313   40.7397   31.7557 H   0  0  0  0  0  0  0  0  0  0  0  0
   11.6991   39.5089   30.3487 H   0  0  0  0  0  0  0  0  0  0  0  0
   10.1131   38.2590   32.6664 H   0  0  0  0  0  0  0  0  0  0  0  0
   13.6801   37.4625   31.2265 H   0  0  0  0  0  0  0  0  0  0  0  0
    8.8953   38.6909   30.8891 H   0  0  0  0  0  0  0  0  0  0  0  0
   11.2830   36.3060   32.4929 H   0  0  0  0  0  0  0  0  0  0  0  0
   11.8859   36.9588   29.7593 H   0  0  0  0  0  0  0  0  0  0  0  0
   12.3360   38.3600   34.7441 H   0  0  0  0  0  0  0  0  0  0  0  0
   16.7572   34.1793   32.4621 H   0  0  0  0  0  0  0  0  0  0  0  0
   15.3528   35.7356   37.5140 H   0  0  0  0  0  0  0  0  0  0  0  0
   16.6362   34.5318   37.1416 H   0  0  0  0  0  0  0  0  0  0  0  0
  1  2  2  0
  1  3  1  0
  3  4  1  0
  4  5  1  0
  6  1  1  0
  7  6  1  0
  6  8  1  0
  8  9  1  0
  9 10  1  0
  9 11  2  0
 10 12  1  0
 12 13  1  0
 13 14  2  0
 15 13  1  0
 14 16  1  0
 14 17  1  0
 18 15  2  0
 16 19  1  0
 16 20  2  0
 17 21  2  0
 21 18  1  0
  4 22  2  0
  4 23  1  0
 24 23  1  0
 24 25  1  0
 25 26  1  0
 25 27  1  0
 26 28  1  0
 27 29  1  0
 27 30  1  0
 30 28  1  0
 28 31  1  0
 30 32  1  0
 33 31  1  0
 34 31  1  0
 35 33  2  0
 33 36  1  0
 37 34  2  0
 38 35  1  0
 36 39  2  0
 36 37  1  0
 40 38  2  0
 40 39  1  0
 39 41  1  0
  6 42  1  6
  7 43  1  0
  7 44  1  0
  8 45  1  0
  8 46  1  0
 12 47  1  0
 12 48  1  0
 15 49  1  0
 17 50  1  0
 18 51  1  0
 21 52  1  0
 24 53  1  0
 24 54  1  0
 25 55  1  0
 27 56  1  0
 28 57  1  0
 29 58  1  0
 30 59  1  0
 32 60  1  0
 34 61  1  0
 38 62  1  0
 41 63  1  0
 41 64  1  0
M  CHG  3   5  -1  16   1  19  -1
M  END
>  <EmbedRMS>  (451) 
0.0884033169937539

$$$$

     RDKit          3D

 64 67  0  0  0  0  0  0  0  0999 V2000
   10.2844   43.7742   33.8072 C   0  0  0  0  0  0  0  0  0  0  0  0
   11.4068   43.5902   34.3639 O   0  0  0  0  0  0  0  0  0  0  0  0
    9.3677   42.7312   33.6994 O   0  0  0  0  0  0  0  0  0  0  0  0
    9.8856   41.2344   34.2841 P   0  0  0  0  0  5  0  0  0  0  0  0
   10.3659   41.4697   35.8746 O   0  0  0  0  0  1  0  0  0  0  0  0
    9.9502   45.1154   33.2534 C   0  0  2  0  0  0  0  0  0  0  0  0
   11.0749   46.0289   33.4735 N   0  0  0  0  0  0  0  0  0  0  0  0
    8.6750   45.6517   33.9345 C   0  0  0  0  0  0  0  0  0  0  0  0
    8.2037   46.9171   33.2887 C   0  0  0  0  0  0  0  0  0  0  0  0
    7.7273   46.8777   31.9743 O   0  0  0  0  0  0  0  0  0  0  0  0
    8.2673   48.0065   33.9208 O   0  0  0  0  0  0  0  0  0  0  0  0
    7.5148   48.0428   31.1809 C   0  0  0  0  0  0  0  0  0  0  0  0
    8.8377   48.6529   30.7807 C   0  0  0  0  0  0  0  0  0  0  0  0
    9.6396   48.1139   29.7367 C   0  0  0  0  0  0  0  0  0  0  0  0
    9.2868   49.7927   31.4727 C   0  0  0  0  0  0  0  0  0  0  0  0
    9.2490   46.9443   28.9928 N   0  0  0  0  0  4  0  0  0  0  0  0
   10.8462   48.7551   29.4028 C   0  0  0  0  0  0  0  0  0  0  0  0
   10.4949   50.4026   31.1343 C   0  0  0  0  0  0  0  0  0  0  0  0
    9.6627   46.7910   27.6894 O   0  0  0  0  0  1  0  0  0  0  0  0
    8.6809   45.9865   29.5555 O   0  0  0  0  0  0  0  0  0  0  0  0
   11.2712   49.8870   30.0992 C   0  0  0  0  0  0  0  0  0  0  0  0
    8.8081   40.1914   34.2083 O   0  0  0  0  0  0  0  0  0  0  0  0
   11.2373   40.7906   33.3686 O   0  0  0  0  0  0  0  0  0  0  0  0
   10.9157   40.6898   31.9956 C   0  0  0  0  0  0  0  0  0  0  0  0
   11.5271   39.3898   31.4372 C   0  0  0  0  0  0  0  0  0  0  0  0
   12.7508   39.0916   32.0838 O   0  0  0  0  0  0  0  0  0  0  0  0
   10.6122   38.1916   31.6451 C   0  0  0  0  0  0  0  0  0  0  0  0
   12.9429   37.6852   32.0295 C   0  0  0  0  0  0  0  0  0  0  0  0
    9.6070   38.0858   30.6603 O   0  0  0  0  0  0  0  0  0  0  0  0
   11.5845   37.0186   31.6879 C   0  0  0  0  0  0  0  0  0  0  0  0
   13.4899   37.2163   33.3250 N   0  0  0  0  0  0  0  0  0  0  0  0
   11.6201   36.3062   30.4693 O   0  0  0  0  0  0  0  0  0  0  0  0
   14.4759   36.3263   33.5738 C   0  0  0  0  0  0  0  0  0  0  0  0
   13.1175   37.6307   34.5699 C   0  0  0  0  0  0  0  0  0  0  0  0
   15.2065   35.6139   32.6746 N   0  0  0  0  0  0  0  0  0  0  0  0
   14.6731   36.2267   34.9191 C   0  0  0  0  0  0  0  0  0  0  0  0
   13.8224   37.0450   35.5792 N   0  0  0  0  0  0  0  0  0  0  0  0
   16.1640   34.7596   33.1551 C   0  0  0  0  0  0  0  0  0  0  0  0
   15.6517   35.3489   35.4136 C   0  0  0  0  0  0  0  0  0  0  0  0
   16.3795   34.6310   34.5046 N   0  0  0  0  0  0  0  0  0  0  0  0
   15.9006   35.1931   36.8094 N   0  0  0  0  0  0  0  0  0  0  0  0
    9.7698   45.0018   32.1602 H   0  0  0  0  0  0  0  0  0  0  0  0
   10.8465   46.9547   33.0444 H   0  0  0  0  0  0  0  0  0  0  0  0
   11.8970   45.6772   32.9292 H   0  0  0  0  0  0  0  0  0  0  0  0
    8.8681   45.8250   35.0167 H   0  0  0  0  0  0  0  0  0  0  0  0
    7.8561   44.9047   33.8503 H   0  0  0  0  0  0  0  0  0  0  0  0
    6.9422   47.7646   30.2716 H   0  0  0  0  0  0  0  0  0  0  0  0
    6.8824   48.7686   31.7383 H   0  0  0  0  0  0  0  0  0  0  0  0
    8.6963   50.2173   32.2751 H   0  0  0  0  0  0  0  0  0  0  0  0
   11.4717   48.3663   28.6094 H   0  0  0  0  0  0  0  0  0  0  0  0
   10.8275   51.2800   31.6738 H   0  0  0  0  0  0  0  0  0  0  0  0
   12.2068   50.3639   29.8366 H   0  0  0  0  0  0  0  0  0  0  0  0
   11.3826   41.5526   31.4741 H   0  0  0  0  0  0  0  0  0  0  0  0
    9.8256   40.7192   31.7584 H   0  0  0  0  0  0  0  0  0  0  0  0
   11.7319   39.5337   30.3518 H   0  0  0  0  0  0  0  0  0  0  0  0
   10.1215   38.2683   32.6412 H   0  0  0  0  0  0  0  0  0  0  0  0
   13.6882   37.4707   31.2319 H   0  0  0  0  0  0  0  0  0  0  0  0
   10.0256   38.1751   29.7656 H   0  0  0  0  0  0  0  0  0  0  0  0
   11.2795   36.3124   32.4915 H   0  0  0  0  0  0  0  0  0  0  0  0
   11.9872   36.9099   29.7714 H   0  0  0  0  0  0  0  0  0  0  0  0
   12.3365   38.3595   34.7453 H   0  0  0  0  0  0  0  0  0  0  0  0
   16.7577   34.1794   32.4622 H   0  0  0  0  0  0  0  0  0  0  0  0
   16.6368   34.5316   37.1418 H   0  0  0  0  0  0  0  0  0  0  0  0
   15.3532   35.7351   37.5143 H   0  0  0  0  0  0  0  0  0  0  0  0
  1  2  2  0
  1  3  1  0
  3  4  1  0
  4  5  1  0
  6  1  1  0
  7  6  1  0
  6  8  1  0
  8  9  1  0
  9 10  1  0
  9 11  2  0
 10 12  1  0
 12 13  1  0
 13 14  2  0
 15 13  1  0
 14 16  1  0
 14 17  1  0
 18 15  2  0
 16 19  1  0
 16 20  2  0
 17 21  2  0
 21 18  1  0
  4 22  2  0
  4 23  1  0
 24 23  1  0
 24 25  1  0
 25 26  1  0
 25 27  1  0
 26 28  1  0
 27 29  1  0
 27 30  1  0
 30 28  1  0
 28 31  1  0
 30 32  1  0
 33 31  1  0
 34 31  1  0
 35 33  2  0
 33 36  1  0
 37 34  2  0
 38 35  1  0
 36 39  2  0
 36 37  1  0
 40 38  2  0
 40 39  1  0
 39 41  1  0
  6 42  1  6
  7 43  1  0
  7 44  1  0
  8 45  1  0
  8 46  1  0
 12 47  1  0
 12 48  1  0
 15 49  1  0
 17 50  1  0
 18 51  1  0
 21 52  1  0
 24 53  1  0
 24 54  1  0
 25 55  1  0
 27 56  1  0
 28 57  1  0
 29 58  1  0
 30 59  1  0
 32 60  1  0
 34 61  1  0
 38 62  1  0
 41 63  1  0
 41 64  1  0
M  CHG  3   5  -1  16   1  19  -1
M  END
>  <EmbedRMS>  (452) 
0.08704135245434183

$$$$

     RDKit          3D

 64 67  0  0  0  0  0  0  0  0999 V2000
   10.2851   43.7726   33.8070 C   0  0  0  0  0  0  0  0  0  0  0  0
   11.4114   43.5868   34.3543 O   0  0  0  0  0  0  0  0  0  0  0  0
    9.3663   42.7316   33.7032 O   0  0  0  0  0  0  0  0  0  0  0  0
    9.8854   41.2340   34.2845 P   0  0  0  0  0  5  0  0  0  0  0  0
   10.3673   41.4671   35.8739 O   0  0  0  0  0  1  0  0  0  0  0  0
    9.9621   45.1084   33.2365 C   0  0  2  0  0  0  0  0  0  0  0  0
   11.0640   46.0392   33.4908 N   0  0  0  0  0  0  0  0  0  0  0  0
    8.6109   45.6548   33.7518 C   0  0  0  0  0  0  0  0  0  0  0  0
    8.5890   45.8929   35.2342 C   0  0  0  0  0  0  0  0  0  0  0  0
    8.7019   44.8099   36.1101 O   0  0  0  0  0  0  0  0  0  0  0  0
    8.4661   47.0672   35.6780 O   0  0  0  0  0  0  0  0  0  0  0  0
    8.6024   44.9459   37.5231 C   0  0  0  0  0  0  0  0  0  0  0  0
    8.9220   43.6251   38.1716 C   0  0  0  0  0  0  0  0  0  0  0  0
   10.2454   43.2568   38.5361 C   0  0  0  0  0  0  0  0  0  0  0  0
    7.8686   42.7229   38.4030 C   0  0  0  0  0  0  0  0  0  0  0  0
   11.3771   44.1023   38.2623 N   0  0  0  0  0  4  0  0  0  0  0  0
   10.4588   42.0246   39.1794 C   0  0  0  0  0  0  0  0  0  0  0  0
    8.1058   41.4958   39.0235 C   0  0  0  0  0  0  0  0  0  0  0  0
   12.4766   44.0659   39.0888 O   0  0  0  0  0  1  0  0  0  0  0  0
   11.4573   44.7294   37.1862 O   0  0  0  0  0  0  0  0  0  0  0  0
    9.3969   41.1511   39.4187 C   0  0  0  0  0  0  0  0  0  0  0  0
    8.8079   40.1912   34.2086 O   0  0  0  0  0  0  0  0  0  0  0  0
   11.2380   40.7906   33.3686 O   0  0  0  0  0  0  0  0  0  0  0  0
   10.9188   40.6896   31.9950 C   0  0  0  0  0  0  0  0  0  0  0  0
   11.5168   39.3802   31.4399 C   0  0  0  0  0  0  0  0  0  0  0  0
   12.7476   39.0863   32.0735 O   0  0  0  0  0  0  0  0  0  0  0  0
   10.6030   38.1891   31.6667 C   0  0  0  0  0  0  0  0  0  0  0  0
   12.9334   37.6798   32.0281 C   0  0  0  0  0  0  0  0  0  0  0  0
    9.6396   38.0777   30.6457 O   0  0  0  0  0  0  0  0  0  0  0  0
   11.5739   37.0155   31.7058 C   0  0  0  0  0  0  0  0  0  0  0  0
   13.4902   37.2179   33.3232 N   0  0  0  0  0  0  0  0  0  0  0  0
   11.6211   36.3377   30.4695 O   0  0  0  0  0  0  0  0  0  0  0  0
   14.4761   36.3274   33.5725 C   0  0  0  0  0  0  0  0  0  0  0  0
   13.1178   37.6318   34.5685 C   0  0  0  0  0  0  0  0  0  0  0  0
   15.2063   35.6140   32.6737 N   0  0  0  0  0  0  0  0  0  0  0  0
   14.6733   36.2278   34.9180 C   0  0  0  0  0  0  0  0  0  0  0  0
   13.8225   37.0460   35.5780 N   0  0  0  0  0  0  0  0  0  0  0  0
   16.1635   34.7595   33.1546 C   0  0  0  0  0  0  0  0  0  0  0  0
   15.6515   35.3495   35.4129 C   0  0  0  0  0  0  0  0  0  0  0  0
   16.3790   34.6311   34.5041 N   0  0  0  0  0  0  0  0  0  0  0  0
   15.9001   35.1936   36.8088 N   0  0  0  0  0  0  0  0  0  0  0  0
    9.8726   44.9745   32.1361 H   0  0  0  0  0  0  0  0  0  0  0  0
   10.8569   46.9425   33.0056 H   0  0  0  0  0  0  0  0  0  0  0  0
   11.1317   46.2448   34.5143 H   0  0  0  0  0  0  0  0  0  0  0  0
    8.3799   46.6039   33.2203 H   0  0  0  0  0  0  0  0  0  0  0  0
    7.7994   44.9394   33.4972 H   0  0  0  0  0  0  0  0  0  0  0  0
    9.2882   45.7391   37.8899 H   0  0  0  0  0  0  0  0  0  0  0  0
    7.5709   45.2665   37.7879 H   0  0  0  0  0  0  0  0  0  0  0  0
    6.8566   42.9742   38.1094 H   0  0  0  0  0  0  0  0  0  0  0  0
   11.4570   41.7258   39.4729 H   0  0  0  0  0  0  0  0  0  0  0  0
    7.2856   40.8125   39.2019 H   0  0  0  0  0  0  0  0  0  0  0  0
    9.5778   40.2000   39.9026 H   0  0  0  0  0  0  0  0  0  0  0  0
   11.4001   41.5439   31.4728 H   0  0  0  0  0  0  0  0  0  0  0  0
    9.8309   40.7395   31.7553 H   0  0  0  0  0  0  0  0  0  0  0  0
   11.6980   39.5044   30.3473 H   0  0  0  0  0  0  0  0  0  0  0  0
   10.1088   38.2631   32.6650 H   0  0  0  0  0  0  0  0  0  0  0  0
   13.6655   37.4544   31.2208 H   0  0  0  0  0  0  0  0  0  0  0  0
    8.8963   38.6897   30.8853 H   0  0  0  0  0  0  0  0  0  0  0  0
   11.2846   36.3060   32.5176 H   0  0  0  0  0  0  0  0  0  0  0  0
   10.8524   35.7095   30.4590 H   0  0  0  0  0  0  0  0  0  0  0  0
   12.3353   38.3590   34.7441 H   0  0  0  0  0  0  0  0  0  0  0  0
   16.7569   34.1789   32.4619 H   0  0  0  0  0  0  0  0  0  0  0  0
   16.6359   34.5317   37.1414 H   0  0  0  0  0  0  0  0  0  0  0  0
   15.3529   35.7359   37.5136 H   0  0  0  0  0  0  0  0  0  0  0  0
  1  2  2  0
  1  3  1  0
  3  4  1  0
  4  5  1  0
  6  1  1  0
  7  6  1  0
  6  8  1  0
  8  9  1  0
  9 10  1  0
  9 11  2  0
 10 12  1  0
 12 13  1  0
 13 14  2  0
 15 13  1  0
 14 16  1  0
 14 17  1  0
 18 15  2  0
 16 19  1  0
 16 20  2  0
 17 21  2  0
 21 18  1  0
  4 22  2  0
  4 23  1  0
 24 23  1  0
 24 25  1  0
 25 26  1  0
 25 27  1  0
 26 28  1  0
 27 29  1  0
 27 30  1  0
 30 28  1  0
 28 31  1  0
 30 32  1  0
 33 31  1  0
 34 31  1  0
 35 33  2  0
 33 36  1  0
 37 34  2  0
 38 35  1  0
 36 39  2  0
 36 37  1  0
 40 38  2  0
 40 39  1  0
 39 41  1  0
  6 42  1  6
  7 43  1  0
  7 44  1  0
  8 45  1  0
  8 46  1  0
 12 47  1  0
 12 48  1  0
 15 49  1  0
 17 50  1  0
 18 51  1  0
 21 52  1  0
 24 53  1  0
 24 54  1  0
 25 55  1  0
 27 56  1  0
 28 57  1  0
 29 58  1  0
 30 59  1  0
 32 60  1  0
 34 61  1  0
 38 62  1  0
 41 63  1  0
 41 64  1  0
M  CHG  3   5  -1  16   1  19  -1
M  END
>  <EmbedRMS>  (453) 
0.08935612463090345

$$$$

     RDKit          3D

 64 67  0  0  0  0  0  0  0  0999 V2000
   10.2822   43.7752   33.8088 C   0  0  0  0  0  0  0  0  0  0  0  0
   11.4052   43.5918   34.3646 O   0  0  0  0  0  0  0  0  0  0  0  0
    9.3711   42.7285   33.6947 O   0  0  0  0  0  0  0  0  0  0  0  0
    9.8864   41.2336   34.2838 P   0  0  0  0  0  5  0  0  0  0  0  0
   10.3654   41.4710   35.8744 O   0  0  0  0  0  1  0  0  0  0  0  0
    9.9444   45.1226   33.2628 C   0  0  2  0  0  0  0  0  0  0  0  0
   11.0794   46.0243   33.4669 N   0  0  0  0  0  0  0  0  0  0  0  0
    8.6963   45.7028   33.9615 C   0  0  0  0  0  0  0  0  0  0  0  0
    7.4507   44.9468   33.6126 C   0  0  0  0  0  0  0  0  0  0  0  0
    6.9131   44.0440   34.5367 O   0  0  0  0  0  0  0  0  0  0  0  0
    6.9169   45.1066   32.4809 O   0  0  0  0  0  0  0  0  0  0  0  0
    5.7531   43.2562   34.2771 C   0  0  0  0  0  0  0  0  0  0  0  0
    4.5145   44.1216   34.2329 C   0  0  0  0  0  0  0  0  0  0  0  0
    4.1609   44.9960   35.2975 C   0  0  0  0  0  0  0  0  0  0  0  0
    3.7108   44.0857   33.0784 C   0  0  0  0  0  0  0  0  0  0  0  0
    4.9290   45.0732   36.5128 N   0  0  0  0  0  4  0  0  0  0  0  0
    3.0355   45.8270   35.1540 C   0  0  0  0  0  0  0  0  0  0  0  0
    2.5894   44.9078   32.9648 C   0  0  0  0  0  0  0  0  0  0  0  0
    4.9724   46.2505   37.2238 O   0  0  0  0  0  1  0  0  0  0  0  0
    5.4254   44.0478   37.0220 O   0  0  0  0  0  0  0  0  0  0  0  0
    2.2551   45.7800   33.9983 C   0  0  0  0  0  0  0  0  0  0  0  0
    8.8078   40.1918   34.2082 O   0  0  0  0  0  0  0  0  0  0  0  0
   11.2378   40.7886   33.3691 O   0  0  0  0  0  0  0  0  0  0  0  0
   10.9163   40.6894   31.9960 C   0  0  0  0  0  0  0  0  0  0  0  0
   11.5273   39.3896   31.4370 C   0  0  0  0  0  0  0  0  0  0  0  0
   12.7511   39.0913   32.0834 O   0  0  0  0  0  0  0  0  0  0  0  0
   10.6123   38.1916   31.6451 C   0  0  0  0  0  0  0  0  0  0  0  0
   12.9429   37.6850   32.0294 C   0  0  0  0  0  0  0  0  0  0  0  0
    9.6069   38.0858   30.6603 O   0  0  0  0  0  0  0  0  0  0  0  0
   11.5844   37.0185   31.6879 C   0  0  0  0  0  0  0  0  0  0  0  0
   13.4899   37.2162   33.3249 N   0  0  0  0  0  0  0  0  0  0  0  0
   11.6200   36.3061   30.4692 O   0  0  0  0  0  0  0  0  0  0  0  0
   14.4759   36.3263   33.5738 C   0  0  0  0  0  0  0  0  0  0  0  0
   13.1175   37.6307   34.5698 C   0  0  0  0  0  0  0  0  0  0  0  0
   15.2065   35.6138   32.6746 N   0  0  0  0  0  0  0  0  0  0  0  0
   14.6731   36.2267   34.9191 C   0  0  0  0  0  0  0  0  0  0  0  0
   13.8224   37.0450   35.5792 N   0  0  0  0  0  0  0  0  0  0  0  0
   16.1640   34.7595   33.1551 C   0  0  0  0  0  0  0  0  0  0  0  0
   15.6517   35.3489   35.4136 C   0  0  0  0  0  0  0  0  0  0  0  0
   16.3795   34.6310   34.5046 N   0  0  0  0  0  0  0  0  0  0  0  0
   15.9006   35.1931   36.8094 N   0  0  0  0  0  0  0  0  0  0  0  0
    9.7470   45.0266   32.1707 H   0  0  0  0  0  0  0  0  0  0  0  0
   11.8814   45.6825   32.8874 H   0  0  0  0  0  0  0  0  0  0  0  0
   10.8354   46.9617   33.0715 H   0  0  0  0  0  0  0  0  0  0  0  0
    8.8402   45.6961   35.0644 H   0  0  0  0  0  0  0  0  0  0  0  0
    8.5520   46.7609   33.6528 H   0  0  0  0  0  0  0  0  0  0  0  0
    5.6413   42.4938   35.0749 H   0  0  0  0  0  0  0  0  0  0  0  0
    5.8990   42.6962   33.3271 H   0  0  0  0  0  0  0  0  0  0  0  0
    3.9584   43.4273   32.2549 H   0  0  0  0  0  0  0  0  0  0  0  0
    2.7499   46.5043   35.9488 H   0  0  0  0  0  0  0  0  0  0  0  0
    1.9819   44.8731   32.0696 H   0  0  0  0  0  0  0  0  0  0  0  0
    1.3869   46.4198   33.9056 H   0  0  0  0  0  0  0  0  0  0  0  0
    9.8262   40.7192   31.7585 H   0  0  0  0  0  0  0  0  0  0  0  0
   11.3838   41.5524   31.4753 H   0  0  0  0  0  0  0  0  0  0  0  0
   11.7319   39.5337   30.3516 H   0  0  0  0  0  0  0  0  0  0  0  0
   10.1216   38.2684   32.6412 H   0  0  0  0  0  0  0  0  0  0  0  0
   13.6882   37.4702   31.2318 H   0  0  0  0  0  0  0  0  0  0  0  0
   10.0255   38.1750   29.7656 H   0  0  0  0  0  0  0  0  0  0  0  0
   11.2794   36.3123   32.4915 H   0  0  0  0  0  0  0  0  0  0  0  0
   11.9870   36.9098   29.7714 H   0  0  0  0  0  0  0  0  0  0  0  0
   12.3365   38.3595   34.7452 H   0  0  0  0  0  0  0  0  0  0  0  0
   16.7577   34.1794   32.4622 H   0  0  0  0  0  0  0  0  0  0  0  0
   16.6368   34.5316   37.1418 H   0  0  0  0  0  0  0  0  0  0  0  0
   15.3532   35.7351   37.5143 H   0  0  0  0  0  0  0  0  0  0  0  0
  1  2  2  0
  1  3  1  0
  3  4  1  0
  4  5  1  0
  6  1  1  0
  7  6  1  0
  6  8  1  0
  8  9  1  0
  9 10  1  0
  9 11  2  0
 10 12  1  0
 12 13  1  0
 13 14  2  0
 15 13  1  0
 14 16  1  0
 14 17  1  0
 18 15  2  0
 16 19  1  0
 16 20  2  0
 17 21  2  0
 21 18  1  0
  4 22  2  0
  4 23  1  0
 24 23  1  0
 24 25  1  0
 25 26  1  0
 25 27  1  0
 26 28  1  0
 27 29  1  0
 27 30  1  0
 30 28  1  0
 28 31  1  0
 30 32  1  0
 33 31  1  0
 34 31  1  0
 35 33  2  0
 33 36  1  0
 37 34  2  0
 38 35  1  0
 36 39  2  0
 36 37  1  0
 40 38  2  0
 40 39  1  0
 39 41  1  0
  6 42  1  6
  7 43  1  0
  7 44  1  0
  8 45  1  0
  8 46  1  0
 12 47  1  0
 12 48  1  0
 15 49  1  0
 17 50  1  0
 18 51  1  0
 21 52  1  0
 24 53  1  0
 24 54  1  0
 25 55  1  0
 27 56  1  0
 28 57  1  0
 29 58  1  0
 30 59  1  0
 32 60  1  0
 34 61  1  0
 38 62  1  0
 41 63  1  0
 41 64  1  0
M  CHG  3   5  -1  16   1  19  -1
M  END
>  <EmbedRMS>  (454) 
0.08753351918594941

$$$$

     RDKit          3D

 64 67  0  0  0  0  0  0  0  0999 V2000
   10.2810   43.7760   33.8071 C   0  0  0  0  0  0  0  0  0  0  0  0
   11.4065   43.5927   34.3581 O   0  0  0  0  0  0  0  0  0  0  0  0
    9.3713   42.7285   33.6961 O   0  0  0  0  0  0  0  0  0  0  0  0
    9.8871   41.2338   34.2849 P   0  0  0  0  0  5  0  0  0  0  0  0
   10.3659   41.4713   35.8754 O   0  0  0  0  0  1  0  0  0  0  0  0
    9.9510   45.1177   33.2449 C   0  0  2  0  0  0  0  0  0  0  0  0
   11.0736   46.0261   33.4862 N   0  0  0  0  0  0  0  0  0  0  0  0
    8.6497   45.6902   33.8551 C   0  0  0  0  0  0  0  0  0  0  0  0
    7.4274   45.0676   33.2505 C   0  0  0  0  0  0  0  0  0  0  0  0
    6.9245   43.8796   33.7856 O   0  0  0  0  0  0  0  0  0  0  0  0
    6.8886   45.5969   32.2402 O   0  0  0  0  0  0  0  0  0  0  0  0
    5.8086   43.1883   33.2345 C   0  0  0  0  0  0  0  0  0  0  0  0
    5.6882   41.8289   33.8780 C   0  0  0  0  0  0  0  0  0  0  0  0
    5.6564   41.6598   35.2887 C   0  0  0  0  0  0  0  0  0  0  0  0
    5.6548   40.6909   33.0499 C   0  0  0  0  0  0  0  0  0  0  0  0
    5.6669   42.7831   36.1886 N   0  0  0  0  0  4  0  0  0  0  0  0
    5.6291   40.3578   35.8218 C   0  0  0  0  0  0  0  0  0  0  0  0
    5.6106   39.4095   33.6001 C   0  0  0  0  0  0  0  0  0  0  0  0
    4.9376   43.9148   35.9077 O   0  0  0  0  0  1  0  0  0  0  0  0
    6.2111   42.6831   37.3079 O   0  0  0  0  0  0  0  0  0  0  0  0
    5.6033   39.2431   34.9831 C   0  0  0  0  0  0  0  0  0  0  0  0
    8.8104   40.1906   34.2093 O   0  0  0  0  0  0  0  0  0  0  0  0
   11.2381   40.7895   33.3693 O   0  0  0  0  0  0  0  0  0  0  0  0
   10.9153   40.6893   31.9965 C   0  0  0  0  0  0  0  0  0  0  0  0
   11.5266   39.3897   31.4374 C   0  0  0  0  0  0  0  0  0  0  0  0
   12.7506   39.0915   32.0836 O   0  0  0  0  0  0  0  0  0  0  0  0
   10.6117   38.1916   31.6455 C   0  0  0  0  0  0  0  0  0  0  0  0
   12.9426   37.6851   32.0295 C   0  0  0  0  0  0  0  0  0  0  0  0
    9.6063   38.0859   30.6607 O   0  0  0  0  0  0  0  0  0  0  0  0
   11.5841   37.0186   31.6881 C   0  0  0  0  0  0  0  0  0  0  0  0
   13.4897   37.2163   33.3249 N   0  0  0  0  0  0  0  0  0  0  0  0
   11.6197   36.3063   30.4693 O   0  0  0  0  0  0  0  0  0  0  0  0
   14.4758   36.3264   33.5738 C   0  0  0  0  0  0  0  0  0  0  0  0
   13.1174   37.6307   34.5699 C   0  0  0  0  0  0  0  0  0  0  0  0
   15.2064   35.6139   32.6746 N   0  0  0  0  0  0  0  0  0  0  0  0
   14.6731   36.2268   34.9190 C   0  0  0  0  0  0  0  0  0  0  0  0
   13.8223   37.0450   35.5792 N   0  0  0  0  0  0  0  0  0  0  0  0
   16.1640   34.7596   33.1551 C   0  0  0  0  0  0  0  0  0  0  0  0
   15.6517   35.3489   35.4136 C   0  0  0  0  0  0  0  0  0  0  0  0
   16.3795   34.6310   34.5045 N   0  0  0  0  0  0  0  0  0  0  0  0
   15.9006   35.1931   36.8094 N   0  0  0  0  0  0  0  0  0  0  0  0
    9.8265   45.0054   32.1444 H   0  0  0  0  0  0  0  0  0  0  0  0
   11.1001   46.2891   34.4994 H   0  0  0  0  0  0  0  0  0  0  0  0
   10.9156   46.9053   32.9417 H   0  0  0  0  0  0  0  0  0  0  0  0
    8.6387   45.5365   34.9565 H   0  0  0  0  0  0  0  0  0  0  0  0
    8.6042   46.7871   33.6770 H   0  0  0  0  0  0  0  0  0  0  0  0
    4.8781   43.7711   33.3976 H   0  0  0  0  0  0  0  0  0  0  0  0
    5.9518   43.0885   32.1357 H   0  0  0  0  0  0  0  0  0  0  0  0
    5.6772   40.7920   31.9718 H   0  0  0  0  0  0  0  0  0  0  0  0
    5.6114   40.2056   36.8936 H   0  0  0  0  0  0  0  0  0  0  0  0
    5.5916   38.5430   32.9517 H   0  0  0  0  0  0  0  0  0  0  0  0
    5.5754   38.2477   35.4073 H   0  0  0  0  0  0  0  0  0  0  0  0
   11.3815   41.5524   31.4750 H   0  0  0  0  0  0  0  0  0  0  0  0
    9.8248   40.7183   31.7602 H   0  0  0  0  0  0  0  0  0  0  0  0
   11.7311   39.5339   30.3520 H   0  0  0  0  0  0  0  0  0  0  0  0
   10.1209   38.2683   32.6416 H   0  0  0  0  0  0  0  0  0  0  0  0
   13.6878   37.4705   31.2318 H   0  0  0  0  0  0  0  0  0  0  0  0
   10.0248   38.1754   29.7660 H   0  0  0  0  0  0  0  0  0  0  0  0
   11.2792   36.3123   32.4916 H   0  0  0  0  0  0  0  0  0  0  0  0
   11.9863   36.9101   29.7715 H   0  0  0  0  0  0  0  0  0  0  0  0
   12.3363   38.3594   34.7453 H   0  0  0  0  0  0  0  0  0  0  0  0
   16.7576   34.1795   32.4622 H   0  0  0  0  0  0  0  0  0  0  0  0
   16.6368   34.5316   37.1418 H   0  0  0  0  0  0  0  0  0  0  0  0
   15.3532   35.7351   37.5143 H   0  0  0  0  0  0  0  0  0  0  0  0
  1  2  2  0
  1  3  1  0
  3  4  1  0
  4  5  1  0
  6  1  1  0
  7  6  1  0
  6  8  1  0
  8  9  1  0
  9 10  1  0
  9 11  2  0
 10 12  1  0
 12 13  1  0
 13 14  2  0
 15 13  1  0
 14 16  1  0
 14 17  1  0
 18 15  2  0
 16 19  1  0
 16 20  2  0
 17 21  2  0
 21 18  1  0
  4 22  2  0
  4 23  1  0
 24 23  1  0
 24 25  1  0
 25 26  1  0
 25 27  1  0
 26 28  1  0
 27 29  1  0
 27 30  1  0
 30 28  1  0
 28 31  1  0
 30 32  1  0
 33 31  1  0
 34 31  1  0
 35 33  2  0
 33 36  1  0
 37 34  2  0
 38 35  1  0
 36 39  2  0
 36 37  1  0
 40 38  2  0
 40 39  1  0
 39 41  1  0
  6 42  1  6
  7 43  1  0
  7 44  1  0
  8 45  1  0
  8 46  1  0
 12 47  1  0
 12 48  1  0
 15 49  1  0
 17 50  1  0
 18 51  1  0
 21 52  1  0
 24 53  1  0
 24 54  1  0
 25 55  1  0
 27 56  1  0
 28 57  1  0
 29 58  1  0
 30 59  1  0
 32 60  1  0
 34 61  1  0
 38 62  1  0
 41 63  1  0
 41 64  1  0
M  CHG  3   5  -1  16   1  19  -1
M  END
>  <EmbedRMS>  (455) 
0.08702932781444854

$$$$

     RDKit          3D

 64 67  0  0  0  0  0  0  0  0999 V2000
   10.2849   43.7739   33.8064 C   0  0  0  0  0  0  0  0  0  0  0  0
   11.4070   43.5900   34.3638 O   0  0  0  0  0  0  0  0  0  0  0  0
    9.3684   42.7308   33.6983 O   0  0  0  0  0  0  0  0  0  0  0  0
    9.8864   41.2339   34.2831 P   0  0  0  0  0  5  0  0  0  0  0  0
   10.3659   41.4695   35.8740 O   0  0  0  0  0  1  0  0  0  0  0  0
    9.9494   45.1167   33.2554 C   0  0  2  0  0  0  0  0  0  0  0  0
   11.0748   46.0284   33.4730 N   0  0  0  0  0  0  0  0  0  0  0  0
    8.6782   45.6527   33.9443 C   0  0  0  0  0  0  0  0  0  0  0  0
    8.1855   46.9277   33.3041 C   0  0  0  0  0  0  0  0  0  0  0  0
    8.2732   48.1802   33.9281 O   0  0  0  0  0  0  0  0  0  0  0  0
    7.6830   46.8675   32.1510 O   0  0  0  0  0  0  0  0  0  0  0  0
    8.7993   48.3997   35.2345 C   0  0  0  0  0  0  0  0  0  0  0  0
    8.7184   49.8682   35.5755 C   0  0  0  0  0  0  0  0  0  0  0  0
    9.3174   50.8696   34.7625 C   0  0  0  0  0  0  0  0  0  0  0  0
    7.9880   50.2576   36.7144 C   0  0  0  0  0  0  0  0  0  0  0  0
   10.0914   50.5437   33.5945 N   0  0  0  0  0  4  0  0  0  0  0  0
    9.1369   52.2232   35.0983 C   0  0  0  0  0  0  0  0  0  0  0  0
    7.8363   51.6064   37.0381 C   0  0  0  0  0  0  0  0  0  0  0  0
   10.1181   51.4097   32.5255 O   0  0  0  0  0  1  0  0  0  0  0  0
   10.8831   49.5798   33.6043 O   0  0  0  0  0  0  0  0  0  0  0  0
    8.4053   52.5872   36.2291 C   0  0  0  0  0  0  0  0  0  0  0  0
    8.8087   40.1911   34.2072 O   0  0  0  0  0  0  0  0  0  0  0  0
   11.2390   40.7898   33.3683 O   0  0  0  0  0  0  0  0  0  0  0  0
   10.9199   40.6894   31.9946 C   0  0  0  0  0  0  0  0  0  0  0  0
   11.5173   39.3800   31.4395 C   0  0  0  0  0  0  0  0  0  0  0  0
   12.7480   39.0860   32.0731 O   0  0  0  0  0  0  0  0  0  0  0  0
   10.6032   38.1891   31.6666 C   0  0  0  0  0  0  0  0  0  0  0  0
   12.9336   37.6795   32.0279 C   0  0  0  0  0  0  0  0  0  0  0  0
    9.6397   38.0777   30.6457 O   0  0  0  0  0  0  0  0  0  0  0  0
   11.5739   37.0153   31.7057 C   0  0  0  0  0  0  0  0  0  0  0  0
   13.4903   37.2177   33.3231 N   0  0  0  0  0  0  0  0  0  0  0  0
   11.6210   36.3375   30.4695 O   0  0  0  0  0  0  0  0  0  0  0  0
   14.4761   36.3273   33.5725 C   0  0  0  0  0  0  0  0  0  0  0  0
   13.1179   37.6316   34.5684 C   0  0  0  0  0  0  0  0  0  0  0  0
   15.2063   35.6138   32.6737 N   0  0  0  0  0  0  0  0  0  0  0  0
   14.6734   36.2277   34.9180 C   0  0  0  0  0  0  0  0  0  0  0  0
   13.8225   37.0459   35.5779 N   0  0  0  0  0  0  0  0  0  0  0  0
   16.1636   34.7594   33.1546 C   0  0  0  0  0  0  0  0  0  0  0  0
   15.6515   35.3494   35.4129 C   0  0  0  0  0  0  0  0  0  0  0  0
   16.3791   34.6311   34.5041 N   0  0  0  0  0  0  0  0  0  0  0  0
   15.9001   35.1936   36.8088 N   0  0  0  0  0  0  0  0  0  0  0  0
    9.7634   45.0056   32.1629 H   0  0  0  0  0  0  0  0  0  0  0  0
   10.8478   46.9470   33.0299 H   0  0  0  0  0  0  0  0  0  0  0  0
   11.8993   45.6703   32.9366 H   0  0  0  0  0  0  0  0  0  0  0  0
    8.8710   45.7848   35.0283 H   0  0  0  0  0  0  0  0  0  0  0  0
    7.8633   44.9011   33.8558 H   0  0  0  0  0  0  0  0  0  0  0  0
    9.8544   48.0594   35.2908 H   0  0  0  0  0  0  0  0  0  0  0  0
    8.2125   47.7999   35.9638 H   0  0  0  0  0  0  0  0  0  0  0  0
    7.5230   49.5160   37.3523 H   0  0  0  0  0  0  0  0  0  0  0  0
    9.5802   53.0017   34.4904 H   0  0  0  0  0  0  0  0  0  0  0  0
    7.2697   51.8916   37.9152 H   0  0  0  0  0  0  0  0  0  0  0  0
    8.2822   53.6329   36.4801 H   0  0  0  0  0  0  0  0  0  0  0  0
    9.8321   40.7398   31.7543 H   0  0  0  0  0  0  0  0  0  0  0  0
   11.4019   41.5435   31.4727 H   0  0  0  0  0  0  0  0  0  0  0  0
   11.6984   39.5040   30.3468 H   0  0  0  0  0  0  0  0  0  0  0  0
   10.1091   38.2633   32.6649 H   0  0  0  0  0  0  0  0  0  0  0  0
   13.6656   37.4538   31.2207 H   0  0  0  0  0  0  0  0  0  0  0  0
    8.8966   38.6901   30.8852 H   0  0  0  0  0  0  0  0  0  0  0  0
   11.2845   36.3060   32.5175 H   0  0  0  0  0  0  0  0  0  0  0  0
   10.8523   35.7094   30.4590 H   0  0  0  0  0  0  0  0  0  0  0  0
   12.3353   38.3587   34.7439 H   0  0  0  0  0  0  0  0  0  0  0  0
   16.7570   34.1788   32.4619 H   0  0  0  0  0  0  0  0  0  0  0  0
   15.3529   35.7359   37.5136 H   0  0  0  0  0  0  0  0  0  0  0  0
   16.6360   34.5317   37.1414 H   0  0  0  0  0  0  0  0  0  0  0  0
  1  2  2  0
  1  3  1  0
  3  4  1  0
  4  5  1  0
  6  1  1  0
  7  6  1  0
  6  8  1  0
  8  9  1  0
  9 10  1  0
  9 11  2  0
 10 12  1  0
 12 13  1  0
 13 14  2  0
 15 13  1  0
 14 16  1  0
 14 17  1  0
 18 15  2  0
 16 19  1  0
 16 20  2  0
 17 21  2  0
 21 18  1  0
  4 22  2  0
  4 23  1  0
 24 23  1  0
 24 25  1  0
 25 26  1  0
 25 27  1  0
 26 28  1  0
 27 29  1  0
 27 30  1  0
 30 28  1  0
 28 31  1  0
 30 32  1  0
 33 31  1  0
 34 31  1  0
 35 33  2  0
 33 36  1  0
 37 34  2  0
 38 35  1  0
 36 39  2  0
 36 37  1  0
 40 38  2  0
 40 39  1  0
 39 41  1  0
  6 42  1  6
  7 43  1  0
  7 44  1  0
  8 45  1  0
  8 46  1  0
 12 47  1  0
 12 48  1  0
 15 49  1  0
 17 50  1  0
 18 51  1  0
 21 52  1  0
 24 53  1  0
 24 54  1  0
 25 55  1  0
 27 56  1  0
 28 57  1  0
 29 58  1  0
 30 59  1  0
 32 60  1  0
 34 61  1  0
 38 62  1  0
 41 63  1  0
 41 64  1  0
M  CHG  3   5  -1  16   1  19  -1
M  END
>  <EmbedRMS>  (456) 
0.08955019425318556

$$$$

     RDKit          3D

 64 67  0  0  0  0  0  0  0  0999 V2000
   10.2850   43.7724   33.8063 C   0  0  0  0  0  0  0  0  0  0  0  0
   11.4104   43.5876   34.3564 O   0  0  0  0  0  0  0  0  0  0  0  0
    9.3662   42.7315   33.7013 O   0  0  0  0  0  0  0  0  0  0  0  0
    9.8848   41.2346   34.2849 P   0  0  0  0  0  5  0  0  0  0  0  0
   10.3657   41.4702   35.8752 O   0  0  0  0  0  1  0  0  0  0  0  0
    9.9577   45.1111   33.2453 C   0  0  2  0  0  0  0  0  0  0  0  0
   11.0678   46.0357   33.4841 N   0  0  0  0  0  0  0  0  0  0  0  0
    8.6196   45.6612   33.7910 C   0  0  0  0  0  0  0  0  0  0  0  0
    8.5470   45.6759   35.2910 C   0  0  0  0  0  0  0  0  0  0  0  0
    9.0987   46.7454   36.0015 O   0  0  0  0  0  0  0  0  0  0  0  0
    8.0041   44.7136   35.8998 O   0  0  0  0  0  0  0  0  0  0  0  0
    8.9995   46.8597   37.4172 C   0  0  0  0  0  0  0  0  0  0  0  0
    9.7831   48.0603   37.8770 C   0  0  0  0  0  0  0  0  0  0  0  0
   11.1492   47.9780   38.2568 C   0  0  0  0  0  0  0  0  0  0  0  0
    9.1305   49.3053   37.9205 C   0  0  0  0  0  0  0  0  0  0  0  0
   11.8858   46.7438   38.1819 N   0  0  0  0  0  4  0  0  0  0  0  0
   11.7998   49.1356   38.7227 C   0  0  0  0  0  0  0  0  0  0  0  0
    9.7994   50.4445   38.3697 C   0  0  0  0  0  0  0  0  0  0  0  0
   11.7299   45.8994   37.1074 O   0  0  0  0  0  1  0  0  0  0  0  0
   12.8008   46.5111   38.9988 O   0  0  0  0  0  0  0  0  0  0  0  0
   11.1292   50.3584   38.7771 C   0  0  0  0  0  0  0  0  0  0  0  0
    8.8076   40.1914   34.2091 O   0  0  0  0  0  0  0  0  0  0  0  0
   11.2366   40.7908   33.3691 O   0  0  0  0  0  0  0  0  0  0  0  0
   10.9151   40.6898   31.9961 C   0  0  0  0  0  0  0  0  0  0  0  0
   11.5268   39.3899   31.4375 C   0  0  0  0  0  0  0  0  0  0  0  0
   12.7506   39.0917   32.0840 O   0  0  0  0  0  0  0  0  0  0  0  0
   10.6121   38.1916   31.6452 C   0  0  0  0  0  0  0  0  0  0  0  0
   12.9429   37.6854   32.0295 C   0  0  0  0  0  0  0  0  0  0  0  0
    9.6070   38.0858   30.6603 O   0  0  0  0  0  0  0  0  0  0  0  0
   11.5845   37.0186   31.6880 C   0  0  0  0  0  0  0  0  0  0  0  0
   13.4899   37.2164   33.3250 N   0  0  0  0  0  0  0  0  0  0  0  0
   11.6202   36.3063   30.4693 O   0  0  0  0  0  0  0  0  0  0  0  0
   14.4759   36.3263   33.5738 C   0  0  0  0  0  0  0  0  0  0  0  0
   13.1176   37.6308   34.5699 C   0  0  0  0  0  0  0  0  0  0  0  0
   15.2065   35.6139   32.6746 N   0  0  0  0  0  0  0  0  0  0  0  0
   14.6731   36.2267   34.9191 C   0  0  0  0  0  0  0  0  0  0  0  0
   13.8224   37.0450   35.5792 N   0  0  0  0  0  0  0  0  0  0  0  0
   16.1640   34.7596   33.1551 C   0  0  0  0  0  0  0  0  0  0  0  0
   15.6517   35.3489   35.4136 C   0  0  0  0  0  0  0  0  0  0  0  0
   16.3795   34.6310   34.5046 N   0  0  0  0  0  0  0  0  0  0  0  0
   15.9006   35.1931   36.8094 N   0  0  0  0  0  0  0  0  0  0  0  0
    9.8480   44.9854   32.1456 H   0  0  0  0  0  0  0  0  0  0  0  0
   10.8662   46.9359   32.9911 H   0  0  0  0  0  0  0  0  0  0  0  0
   11.1437   46.2507   34.5036 H   0  0  0  0  0  0  0  0  0  0  0  0
    8.4602   46.6935   33.4121 H   0  0  0  0  0  0  0  0  0  0  0  0
    7.7844   45.0427   33.3945 H   0  0  0  0  0  0  0  0  0  0  0  0
    9.3671   45.9352   37.9110 H   0  0  0  0  0  0  0  0  0  0  0  0
    7.9298   46.9693   37.7012 H   0  0  0  0  0  0  0  0  0  0  0  0
    8.0949   49.3924   37.6149 H   0  0  0  0  0  0  0  0  0  0  0  0
   12.8387   49.0954   39.0253 H   0  0  0  0  0  0  0  0  0  0  0  0
    9.2838   51.3956   38.4056 H   0  0  0  0  0  0  0  0  0  0  0  0
   11.6450   51.2429   39.1282 H   0  0  0  0  0  0  0  0  0  0  0  0
   11.3819   41.5527   31.4745 H   0  0  0  0  0  0  0  0  0  0  0  0
    9.8250   40.7189   31.7591 H   0  0  0  0  0  0  0  0  0  0  0  0
   11.7317   39.5339   30.3522 H   0  0  0  0  0  0  0  0  0  0  0  0
   10.1213   38.2681   32.6413 H   0  0  0  0  0  0  0  0  0  0  0  0
   13.6882   37.4710   31.2319 H   0  0  0  0  0  0  0  0  0  0  0  0
   10.0257   38.1751   29.7656 H   0  0  0  0  0  0  0  0  0  0  0  0
   11.2796   36.3124   32.4915 H   0  0  0  0  0  0  0  0  0  0  0  0
   11.9872   36.9100   29.7715 H   0  0  0  0  0  0  0  0  0  0  0  0
   12.3365   38.3596   34.7454 H   0  0  0  0  0  0  0  0  0  0  0  0
   16.7576   34.1794   32.4622 H   0  0  0  0  0  0  0  0  0  0  0  0
   15.3532   35.7351   37.5143 H   0  0  0  0  0  0  0  0  0  0  0  0
   16.6368   34.5316   37.1418 H   0  0  0  0  0  0  0  0  0  0  0  0
  1  2  2  0
  1  3  1  0
  3  4  1  0
  4  5  1  0
  6  1  1  0
  7  6  1  0
  6  8  1  0
  8  9  1  0
  9 10  1  0
  9 11  2  0
 10 12  1  0
 12 13  1  0
 13 14  2  0
 15 13  1  0
 14 16  1  0
 14 17  1  0
 18 15  2  0
 16 19  1  0
 16 20  2  0
 17 21  2  0
 21 18  1  0
  4 22  2  0
  4 23  1  0
 24 23  1  0
 24 25  1  0
 25 26  1  0
 25 27  1  0
 26 28  1  0
 27 29  1  0
 27 30  1  0
 30 28  1  0
 28 31  1  0
 30 32  1  0
 33 31  1  0
 34 31  1  0
 35 33  2  0
 33 36  1  0
 37 34  2  0
 38 35  1  0
 36 39  2  0
 36 37  1  0
 40 38  2  0
 40 39  1  0
 39 41  1  0
  6 42  1  6
  7 43  1  0
  7 44  1  0
  8 45  1  0
  8 46  1  0
 12 47  1  0
 12 48  1  0
 15 49  1  0
 17 50  1  0
 18 51  1  0
 21 52  1  0
 24 53  1  0
 24 54  1  0
 25 55  1  0
 27 56  1  0
 28 57  1  0
 29 58  1  0
 30 59  1  0
 32 60  1  0
 34 61  1  0
 38 62  1  0
 41 63  1  0
 41 64  1  0
M  CHG  3   5  -1  16   1  19  -1
M  END
>  <EmbedRMS>  (457) 
0.08682291798606451

$$$$

     RDKit          3D

 64 67  0  0  0  0  0  0  0  0999 V2000
   10.2860   43.7719   33.8045 C   0  0  0  0  0  0  0  0  0  0  0  0
   11.4086   43.5882   34.3607 O   0  0  0  0  0  0  0  0  0  0  0  0
    9.3671   42.7311   33.6996 O   0  0  0  0  0  0  0  0  0  0  0  0
    9.8853   41.2343   34.2839 P   0  0  0  0  0  5  0  0  0  0  0  0
   10.3662   41.4701   35.8743 O   0  0  0  0  0  1  0  0  0  0  0  0
    9.9533   45.1147   33.2530 C   0  0  2  0  0  0  0  0  0  0  0  0
   11.0710   46.0334   33.4771 N   0  0  0  0  0  0  0  0  0  0  0  0
    8.6589   45.6655   33.8857 C   0  0  0  0  0  0  0  0  0  0  0  0
    8.7686   45.8192   35.3744 C   0  0  0  0  0  0  0  0  0  0  0  0
    9.4867   46.8943   35.9045 O   0  0  0  0  0  0  0  0  0  0  0  0
    8.2395   44.9621   36.1338 O   0  0  0  0  0  0  0  0  0  0  0  0
    9.6400   47.1004   37.3045 C   0  0  0  0  0  0  0  0  0  0  0  0
   10.5200   48.2994   37.5386 C   0  0  0  0  0  0  0  0  0  0  0  0
   11.9350   48.2000   37.6082 C   0  0  0  0  0  0  0  0  0  0  0  0
    9.9104   49.5584   37.6839 C   0  0  0  0  0  0  0  0  0  0  0  0
   12.6190   46.9489   37.4121 N   0  0  0  0  0  4  0  0  0  0  0  0
   12.6888   49.3571   37.8791 C   0  0  0  0  0  0  0  0  0  0  0  0
   10.6781   50.6963   37.9352 C   0  0  0  0  0  0  0  0  0  0  0  0
   12.2107   46.0735   36.4329 O   0  0  0  0  0  1  0  0  0  0  0  0
   13.6927   46.7230   38.0078 O   0  0  0  0  0  0  0  0  0  0  0  0
   12.0639   50.5946   38.0402 C   0  0  0  0  0  0  0  0  0  0  0  0
    8.8077   40.1915   34.2087 O   0  0  0  0  0  0  0  0  0  0  0  0
   11.2367   40.7908   33.3672 O   0  0  0  0  0  0  0  0  0  0  0  0
   10.9136   40.6860   31.9946 C   0  0  0  0  0  0  0  0  0  0  0  0
   11.5170   39.3797   31.4409 C   0  0  0  0  0  0  0  0  0  0  0  0
   12.7488   39.0886   32.0762 O   0  0  0  0  0  0  0  0  0  0  0  0
   10.6051   38.1877   31.6659 C   0  0  0  0  0  0  0  0  0  0  0  0
   12.9412   37.6828   32.0278 C   0  0  0  0  0  0  0  0  0  0  0  0
    9.6358   38.0931   30.6503 O   0  0  0  0  0  0  0  0  0  0  0  0
   11.5827   37.0179   31.6936 C   0  0  0  0  0  0  0  0  0  0  0  0
   13.4909   37.2176   33.3239 N   0  0  0  0  0  0  0  0  0  0  0  0
   11.6140   36.3180   30.4675 O   0  0  0  0  0  0  0  0  0  0  0  0
   14.4763   36.3270   33.5733 C   0  0  0  0  0  0  0  0  0  0  0  0
   13.1179   37.6316   34.5689 C   0  0  0  0  0  0  0  0  0  0  0  0
   15.2067   35.6140   32.6743 N   0  0  0  0  0  0  0  0  0  0  0  0
   14.6731   36.2273   34.9186 C   0  0  0  0  0  0  0  0  0  0  0  0
   13.8223   37.0456   35.5785 N   0  0  0  0  0  0  0  0  0  0  0  0
   16.1639   34.7595   33.1551 C   0  0  0  0  0  0  0  0  0  0  0  0
   15.6515   35.3491   35.4134 C   0  0  0  0  0  0  0  0  0  0  0  0
   16.3792   34.6310   34.5045 N   0  0  0  0  0  0  0  0  0  0  0  0
   15.9002   35.1933   36.8093 N   0  0  0  0  0  0  0  0  0  0  0  0
    9.7857   45.0056   32.1578 H   0  0  0  0  0  0  0  0  0  0  0  0
   11.8840   45.7120   32.9017 H   0  0  0  0  0  0  0  0  0  0  0  0
   10.8111   46.9717   33.0943 H   0  0  0  0  0  0  0  0  0  0  0  0
    8.4220   46.6559   33.4410 H   0  0  0  0  0  0  0  0  0  0  0  0
    7.8084   44.9915   33.6413 H   0  0  0  0  0  0  0  0  0  0  0  0
   10.0747   46.1974   37.7843 H   0  0  0  0  0  0  0  0  0  0  0  0
    8.6398   47.2599   37.7642 H   0  0  0  0  0  0  0  0  0  0  0  0
    8.8341   49.6585   37.6129 H   0  0  0  0  0  0  0  0  0  0  0  0
   13.7683   49.3043   37.9447 H   0  0  0  0  0  0  0  0  0  0  0  0
   10.1965   51.6585   38.0529 H   0  0  0  0  0  0  0  0  0  0  0  0
   12.6569   51.4781   38.2383 H   0  0  0  0  0  0  0  0  0  0  0  0
    9.8235   40.7211   31.7581 H   0  0  0  0  0  0  0  0  0  0  0  0
   11.3856   41.5434   31.4688 H   0  0  0  0  0  0  0  0  0  0  0  0
   11.6994   39.5065   30.3488 H   0  0  0  0  0  0  0  0  0  0  0  0
   10.1120   38.2723   32.6632 H   0  0  0  0  0  0  0  0  0  0  0  0
   13.6816   37.4632   31.2269 H   0  0  0  0  0  0  0  0  0  0  0  0
    9.0037   37.3828   30.9349 H   0  0  0  0  0  0  0  0  0  0  0  0
   11.2846   36.3041   32.4928 H   0  0  0  0  0  0  0  0  0  0  0  0
   11.8849   36.9590   29.7589 H   0  0  0  0  0  0  0  0  0  0  0  0
   12.3363   38.3599   34.7441 H   0  0  0  0  0  0  0  0  0  0  0  0
   16.7574   34.1790   32.4623 H   0  0  0  0  0  0  0  0  0  0  0  0
   16.6363   34.5316   37.1418 H   0  0  0  0  0  0  0  0  0  0  0  0
   15.3529   35.7355   37.5141 H   0  0  0  0  0  0  0  0  0  0  0  0
  1  2  2  0
  1  3  1  0
  3  4  1  0
  4  5  1  0
  6  1  1  0
  7  6  1  0
  6  8  1  0
  8  9  1  0
  9 10  1  0
  9 11  2  0
 10 12  1  0
 12 13  1  0
 13 14  2  0
 15 13  1  0
 14 16  1  0
 14 17  1  0
 18 15  2  0
 16 19  1  0
 16 20  2  0
 17 21  2  0
 21 18  1  0
  4 22  2  0
  4 23  1  0
 24 23  1  0
 24 25  1  0
 25 26  1  0
 25 27  1  0
 26 28  1  0
 27 29  1  0
 27 30  1  0
 30 28  1  0
 28 31  1  0
 30 32  1  0
 33 31  1  0
 34 31  1  0
 35 33  2  0
 33 36  1  0
 37 34  2  0
 38 35  1  0
 36 39  2  0
 36 37  1  0
 40 38  2  0
 40 39  1  0
 39 41  1  0
  6 42  1  6
  7 43  1  0
  7 44  1  0
  8 45  1  0
  8 46  1  0
 12 47  1  0
 12 48  1  0
 15 49  1  0
 17 50  1  0
 18 51  1  0
 21 52  1  0
 24 53  1  0
 24 54  1  0
 25 55  1  0
 27 56  1  0
 28 57  1  0
 29 58  1  0
 30 59  1  0
 32 60  1  0
 34 61  1  0
 38 62  1  0
 41 63  1  0
 41 64  1  0
M  CHG  3   5  -1  16   1  19  -1
M  END
>  <EmbedRMS>  (458) 
0.08783316261950654

$$$$

     RDKit          3D

 64 67  0  0  0  0  0  0  0  0999 V2000
   10.2825   43.7758   33.8081 C   0  0  0  0  0  0  0  0  0  0  0  0
   11.4083   43.5916   34.3580 O   0  0  0  0  0  0  0  0  0  0  0  0
    9.3668   42.7318   33.7012 O   0  0  0  0  0  0  0  0  0  0  0  0
    9.8865   41.2345   34.2832 P   0  0  0  0  0  5  0  0  0  0  0  0
   10.3677   41.4692   35.8736 O   0  0  0  0  0  1  0  0  0  0  0  0
    9.9531   45.1120   33.2433 C   0  0  2  0  0  0  0  0  0  0  0  0
   11.0730   46.0262   33.4844 N   0  0  0  0  0  0  0  0  0  0  0  0
    8.6404   45.6467   33.8550 C   0  0  0  0  0  0  0  0  0  0  0  0
    8.1795   46.8935   33.1656 C   0  0  0  0  0  0  0  0  0  0  0  0
    7.4070   46.7891   32.0018 O   0  0  0  0  0  0  0  0  0  0  0  0
    8.5148   48.0215   33.6197 O   0  0  0  0  0  0  0  0  0  0  0  0
    6.9123   47.9179   31.2788 C   0  0  0  0  0  0  0  0  0  0  0  0
    7.8457   48.3643   30.1690 C   0  0  0  0  0  0  0  0  0  0  0  0
    7.3896   49.2424   29.1472 C   0  0  0  0  0  0  0  0  0  0  0  0
    9.1779   47.9020   30.1217 C   0  0  0  0  0  0  0  0  0  0  0  0
    6.0509   49.7725   29.1445 N   0  0  0  0  0  4  0  0  0  0  0  0
    8.2622   49.5953   28.1013 C   0  0  0  0  0  0  0  0  0  0  0  0
   10.0299   48.2783   29.0830 C   0  0  0  0  0  0  0  0  0  0  0  0
    5.4618   50.1984   30.3122 O   0  0  0  0  0  1  0  0  0  0  0  0
    5.4741   50.0081   28.0625 O   0  0  0  0  0  0  0  0  0  0  0  0
    9.5720   49.1189   28.0725 C   0  0  0  0  0  0  0  0  0  0  0  0
    8.8087   40.1917   34.2082 O   0  0  0  0  0  0  0  0  0  0  0  0
   11.2377   40.7913   33.3656 O   0  0  0  0  0  0  0  0  0  0  0  0
   10.9142   40.6852   31.9929 C   0  0  0  0  0  0  0  0  0  0  0  0
   11.5166   39.3774   31.4393 C   0  0  0  0  0  0  0  0  0  0  0  0
   12.7472   39.0855   32.0740 O   0  0  0  0  0  0  0  0  0  0  0  0
   10.6047   38.1868   31.6670 C   0  0  0  0  0  0  0  0  0  0  0  0
   12.9345   37.6791   32.0282 C   0  0  0  0  0  0  0  0  0  0  0  0
    9.6378   38.0918   30.6489 O   0  0  0  0  0  0  0  0  0  0  0  0
   11.5761   37.0129   31.7057 C   0  0  0  0  0  0  0  0  0  0  0  0
   13.4909   37.2177   33.3233 N   0  0  0  0  0  0  0  0  0  0  0  0
   11.6234   36.3371   30.4684 O   0  0  0  0  0  0  0  0  0  0  0  0
   14.4765   36.3272   33.5727 C   0  0  0  0  0  0  0  0  0  0  0  0
   13.1182   37.6315   34.5685 C   0  0  0  0  0  0  0  0  0  0  0  0
   15.2066   35.6137   32.6739 N   0  0  0  0  0  0  0  0  0  0  0  0
   14.6736   36.2276   34.9182 C   0  0  0  0  0  0  0  0  0  0  0  0
   13.8227   37.0457   35.5781 N   0  0  0  0  0  0  0  0  0  0  0  0
   16.1638   34.7593   33.1548 C   0  0  0  0  0  0  0  0  0  0  0  0
   15.6517   35.3492   35.4131 C   0  0  0  0  0  0  0  0  0  0  0  0
   16.3792   34.6309   34.5043 N   0  0  0  0  0  0  0  0  0  0  0  0
   15.9003   35.1934   36.8090 N   0  0  0  0  0  0  0  0  0  0  0  0
    9.8205   44.9832   32.1459 H   0  0  0  0  0  0  0  0  0  0  0  0
   10.9389   46.8907   32.9125 H   0  0  0  0  0  0  0  0  0  0  0  0
   11.0865   46.3137   34.4907 H   0  0  0  0  0  0  0  0  0  0  0  0
    8.7720   45.8432   34.9419 H   0  0  0  0  0  0  0  0  0  0  0  0
    7.8382   44.8841   33.7503 H   0  0  0  0  0  0  0  0  0  0  0  0
    6.7166   48.7622   31.9740 H   0  0  0  0  0  0  0  0  0  0  0  0
    5.9433   47.6194   30.8260 H   0  0  0  0  0  0  0  0  0  0  0  0
    9.5685   47.2359   30.8754 H   0  0  0  0  0  0  0  0  0  0  0  0
    7.9306   50.2584   27.3121 H   0  0  0  0  0  0  0  0  0  0  0  0
   11.0477   47.9106   29.0590 H   0  0  0  0  0  0  0  0  0  0  0  0
   10.2347   49.4057   27.2662 H   0  0  0  0  0  0  0  0  0  0  0  0
    9.8241   40.7212   31.7568 H   0  0  0  0  0  0  0  0  0  0  0  0
   11.3867   41.5416   31.4661 H   0  0  0  0  0  0  0  0  0  0  0  0
   11.6987   39.5012   30.3467 H   0  0  0  0  0  0  0  0  0  0  0  0
   10.1095   38.2772   32.6629 H   0  0  0  0  0  0  0  0  0  0  0  0
   13.6672   37.4545   31.2213 H   0  0  0  0  0  0  0  0  0  0  0  0
    8.9779   37.4158   30.9534 H   0  0  0  0  0  0  0  0  0  0  0  0
   11.2860   36.3041   32.5177 H   0  0  0  0  0  0  0  0  0  0  0  0
   10.8690   35.6919   30.4657 H   0  0  0  0  0  0  0  0  0  0  0  0
   12.3356   38.3587   34.7440 H   0  0  0  0  0  0  0  0  0  0  0  0
   16.7572   34.1786   32.4621 H   0  0  0  0  0  0  0  0  0  0  0  0
   15.3530   35.7357   37.5138 H   0  0  0  0  0  0  0  0  0  0  0  0
   16.6361   34.5315   37.1415 H   0  0  0  0  0  0  0  0  0  0  0  0
  1  2  2  0
  1  3  1  0
  3  4  1  0
  4  5  1  0
  6  1  1  0
  7  6  1  0
  6  8  1  0
  8  9  1  0
  9 10  1  0
  9 11  2  0
 10 12  1  0
 12 13  1  0
 13 14  2  0
 15 13  1  0
 14 16  1  0
 14 17  1  0
 18 15  2  0
 16 19  1  0
 16 20  2  0
 17 21  2  0
 21 18  1  0
  4 22  2  0
  4 23  1  0
 24 23  1  0
 24 25  1  0
 25 26  1  0
 25 27  1  0
 26 28  1  0
 27 29  1  0
 27 30  1  0
 30 28  1  0
 28 31  1  0
 30 32  1  0
 33 31  1  0
 34 31  1  0
 35 33  2  0
 33 36  1  0
 37 34  2  0
 38 35  1  0
 36 39  2  0
 36 37  1  0
 40 38  2  0
 40 39  1  0
 39 41  1  0
  6 42  1  6
  7 43  1  0
  7 44  1  0
  8 45  1  0
  8 46  1  0
 12 47  1  0
 12 48  1  0
 15 49  1  0
 17 50  1  0
 18 51  1  0
 21 52  1  0
 24 53  1  0
 24 54  1  0
 25 55  1  0
 27 56  1  0
 28 57  1  0
 29 58  1  0
 30 59  1  0
 32 60  1  0
 34 61  1  0
 38 62  1  0
 41 63  1  0
 41 64  1  0
M  CHG  3   5  -1  16   1  19  -1
M  END
>  <EmbedRMS>  (459) 
0.0887291198983521

$$$$

     RDKit          3D

 64 67  0  0  0  0  0  0  0  0999 V2000
   10.2811   43.7760   33.8095 C   0  0  0  0  0  0  0  0  0  0  0  0
   11.4072   43.5919   34.3589 O   0  0  0  0  0  0  0  0  0  0  0  0
    9.3697   42.7293   33.6981 O   0  0  0  0  0  0  0  0  0  0  0  0
    9.8867   41.2338   34.2845 P   0  0  0  0  0  5  0  0  0  0  0  0
   10.3656   41.4704   35.8752 O   0  0  0  0  0  1  0  0  0  0  0  0
    9.9500   45.1174   33.2494 C   0  0  2  0  0  0  0  0  0  0  0  0
   11.0753   46.0253   33.4792 N   0  0  0  0  0  0  0  0  0  0  0  0
    8.6577   45.6935   33.8706 C   0  0  0  0  0  0  0  0  0  0  0  0
    7.4384   44.9447   33.4270 C   0  0  0  0  0  0  0  0  0  0  0  0
    6.8406   44.0268   34.2977 O   0  0  0  0  0  0  0  0  0  0  0  0
    6.9804   45.1251   32.2656 O   0  0  0  0  0  0  0  0  0  0  0  0
    5.6978   43.2481   33.9494 C   0  0  0  0  0  0  0  0  0  0  0  0
    4.4669   44.1179   33.8379 C   0  0  0  0  0  0  0  0  0  0  0  0
    4.0649   44.9983   34.8784 C   0  0  0  0  0  0  0  0  0  0  0  0
    3.7206   44.0777   32.6457 C   0  0  0  0  0  0  0  0  0  0  0  0
    4.7743   45.0711   36.1288 N   0  0  0  0  0  4  0  0  0  0  0  0
    2.9505   45.8332   34.6757 C   0  0  0  0  0  0  0  0  0  0  0  0
    2.6094   44.9035   32.4722 C   0  0  0  0  0  0  0  0  0  0  0  0
    5.2466   43.9311   36.7361 O   0  0  0  0  0  1  0  0  0  0  0  0
    4.8292   46.1499   36.7548 O   0  0  0  0  0  0  0  0  0  0  0  0
    2.2281   45.7829   33.4831 C   0  0  0  0  0  0  0  0  0  0  0  0
    8.8084   40.1917   34.2081 O   0  0  0  0  0  0  0  0  0  0  0  0
   11.2389   40.7897   33.3698 O   0  0  0  0  0  0  0  0  0  0  0  0
   10.9191   40.6903   31.9964 C   0  0  0  0  0  0  0  0  0  0  0  0
   11.5176   39.3824   31.4410 C   0  0  0  0  0  0  0  0  0  0  0  0
   12.7496   39.0892   32.0754 O   0  0  0  0  0  0  0  0  0  0  0  0
   10.6036   38.1900   31.6659 C   0  0  0  0  0  0  0  0  0  0  0  0
   12.9401   37.6833   32.0275 C   0  0  0  0  0  0  0  0  0  0  0  0
    9.6376   38.0786   30.6473 O   0  0  0  0  0  0  0  0  0  0  0  0
   11.5803   37.0204   31.6937 C   0  0  0  0  0  0  0  0  0  0  0  0
   13.4902   37.2177   33.3236 N   0  0  0  0  0  0  0  0  0  0  0  0
   11.6116   36.3191   30.4682 O   0  0  0  0  0  0  0  0  0  0  0  0
   14.4759   36.3271   33.5730 C   0  0  0  0  0  0  0  0  0  0  0  0
   13.1176   37.6318   34.5687 C   0  0  0  0  0  0  0  0  0  0  0  0
   15.2064   35.6141   32.6741 N   0  0  0  0  0  0  0  0  0  0  0  0
   14.6729   36.2274   34.9184 C   0  0  0  0  0  0  0  0  0  0  0  0
   13.8222   37.0458   35.5783 N   0  0  0  0  0  0  0  0  0  0  0  0
   16.1637   34.7596   33.1549 C   0  0  0  0  0  0  0  0  0  0  0  0
   15.6514   35.3493   35.4133 C   0  0  0  0  0  0  0  0  0  0  0  0
   16.3791   34.6311   34.5044 N   0  0  0  0  0  0  0  0  0  0  0  0
   15.9001   35.1935   36.8091 N   0  0  0  0  0  0  0  0  0  0  0  0
    9.8113   45.0041   32.1510 H   0  0  0  0  0  0  0  0  0  0  0  0
   11.1185   46.2823   34.4933 H   0  0  0  0  0  0  0  0  0  0  0  0
   10.9074   46.9079   32.9432 H   0  0  0  0  0  0  0  0  0  0  0  0
    8.7240   45.6708   34.9806 H   0  0  0  0  0  0  0  0  0  0  0  0
    8.5409   46.7562   33.5660 H   0  0  0  0  0  0  0  0  0  0  0  0
    5.9045   42.7038   33.0016 H   0  0  0  0  0  0  0  0  0  0  0  0
    5.5312   42.4732   34.7251 H   0  0  0  0  0  0  0  0  0  0  0  0
    4.0056   43.4132   31.8394 H   0  0  0  0  0  0  0  0  0  0  0  0
    2.6294   46.5155   35.4526 H   0  0  0  0  0  0  0  0  0  0  0  0
    2.0467   44.8657   31.5484 H   0  0  0  0  0  0  0  0  0  0  0  0
    1.3680   46.4252   33.3443 H   0  0  0  0  0  0  0  0  0  0  0  0
    9.8311   40.7395   31.7565 H   0  0  0  0  0  0  0  0  0  0  0  0
   11.3999   41.5455   31.4750 H   0  0  0  0  0  0  0  0  0  0  0  0
   11.6990   39.5094   30.3488 H   0  0  0  0  0  0  0  0  0  0  0  0
   10.1130   38.2591   32.6663 H   0  0  0  0  0  0  0  0  0  0  0  0
   13.6800   37.4626   31.2264 H   0  0  0  0  0  0  0  0  0  0  0  0
    8.8954   38.6911   30.8890 H   0  0  0  0  0  0  0  0  0  0  0  0
   11.2830   36.3062   32.4931 H   0  0  0  0  0  0  0  0  0  0  0  0
   11.8853   36.9587   29.7592 H   0  0  0  0  0  0  0  0  0  0  0  0
   12.3362   38.3601   34.7441 H   0  0  0  0  0  0  0  0  0  0  0  0
   16.7572   34.1791   32.4622 H   0  0  0  0  0  0  0  0  0  0  0  0
   15.3528   35.7356   37.5140 H   0  0  0  0  0  0  0  0  0  0  0  0
   16.6361   34.5318   37.1417 H   0  0  0  0  0  0  0  0  0  0  0  0
  1  2  2  0
  1  3  1  0
  3  4  1  0
  4  5  1  0
  6  1  1  0
  7  6  1  0
  6  8  1  0
  8  9  1  0
  9 10  1  0
  9 11  2  0
 10 12  1  0
 12 13  1  0
 13 14  2  0
 15 13  1  0
 14 16  1  0
 14 17  1  0
 18 15  2  0
 16 19  1  0
 16 20  2  0
 17 21  2  0
 21 18  1  0
  4 22  2  0
  4 23  1  0
 24 23  1  0
 24 25  1  0
 25 26  1  0
 25 27  1  0
 26 28  1  0
 27 29  1  0
 27 30  1  0
 30 28  1  0
 28 31  1  0
 30 32  1  0
 33 31  1  0
 34 31  1  0
 35 33  2  0
 33 36  1  0
 37 34  2  0
 38 35  1  0
 36 39  2  0
 36 37  1  0
 40 38  2  0
 40 39  1  0
 39 41  1  0
  6 42  1  6
  7 43  1  0
  7 44  1  0
  8 45  1  0
  8 46  1  0
 12 47  1  0
 12 48  1  0
 15 49  1  0
 17 50  1  0
 18 51  1  0
 21 52  1  0
 24 53  1  0
 24 54  1  0
 25 55  1  0
 27 56  1  0
 28 57  1  0
 29 58  1  0
 30 59  1  0
 32 60  1  0
 34 61  1  0
 38 62  1  0
 41 63  1  0
 41 64  1  0
M  CHG  3   5  -1  16   1  19  -1
M  END
>  <EmbedRMS>  (460) 
0.08841468955829479

$$$$

     RDKit          3D

 64 67  0  0  0  0  0  0  0  0999 V2000
   10.2861   43.7711   33.8099 C   0  0  0  0  0  0  0  0  0  0  0  0
   11.4100   43.5818   34.3615 O   0  0  0  0  0  0  0  0  0  0  0  0
    9.3665   42.7311   33.7022 O   0  0  0  0  0  0  0  0  0  0  0  0
    9.8845   41.2331   34.2841 P   0  0  0  0  0  5  0  0  0  0  0  0
   10.3659   41.4676   35.8745 O   0  0  0  0  0  1  0  0  0  0  0  0
    9.9608   45.1123   33.2472 C   0  0  2  0  0  0  0  0  0  0  0  0
   11.0655   46.0480   33.4748 N   0  0  0  0  0  0  0  0  0  0  0  0
    8.6641   45.6567   33.8700 C   0  0  0  0  0  0  0  0  0  0  0  0
    8.2874   46.9700   33.2592 C   0  0  0  0  0  0  0  0  0  0  0  0
    8.7155   48.1564   33.8644 O   0  0  0  0  0  0  0  0  0  0  0  0
    7.6325   46.9939   32.1819 O   0  0  0  0  0  0  0  0  0  0  0  0
    8.5303   49.4463   33.2838 C   0  0  0  0  0  0  0  0  0  0  0  0
    9.4093   49.6124   32.0644 C   0  0  0  0  0  0  0  0  0  0  0  0
    8.9160   50.0692   30.8133 C   0  0  0  0  0  0  0  0  0  0  0  0
   10.7900   49.3866   32.2135 C   0  0  0  0  0  0  0  0  0  0  0  0
    7.5201   50.3146   30.5887 N   0  0  0  0  0  4  0  0  0  0  0  0
    9.8177   50.2959   29.7599 C   0  0  0  0  0  0  0  0  0  0  0  0
   11.6671   49.5977   31.1489 C   0  0  0  0  0  0  0  0  0  0  0  0
    7.1331   51.4172   29.8625 O   0  0  0  0  0  1  0  0  0  0  0  0
    6.6842   49.4135   30.8041 O   0  0  0  0  0  0  0  0  0  0  0  0
   11.1823   50.0552   29.9252 C   0  0  0  0  0  0  0  0  0  0  0  0
    8.8069   40.1905   34.2081 O   0  0  0  0  0  0  0  0  0  0  0  0
   11.2363   40.7907   33.3671 O   0  0  0  0  0  0  0  0  0  0  0  0
   10.9133   40.6860   31.9945 C   0  0  0  0  0  0  0  0  0  0  0  0
   11.5169   39.3797   31.4409 C   0  0  0  0  0  0  0  0  0  0  0  0
   12.7487   39.0887   32.0763 O   0  0  0  0  0  0  0  0  0  0  0  0
   10.6051   38.1876   31.6659 C   0  0  0  0  0  0  0  0  0  0  0  0
   12.9411   37.6829   32.0278 C   0  0  0  0  0  0  0  0  0  0  0  0
    9.6358   38.0930   30.6502 O   0  0  0  0  0  0  0  0  0  0  0  0
   11.5827   37.0179   31.6936 C   0  0  0  0  0  0  0  0  0  0  0  0
   13.4909   37.2177   33.3239 N   0  0  0  0  0  0  0  0  0  0  0  0
   11.6141   36.3180   30.4675 O   0  0  0  0  0  0  0  0  0  0  0  0
   14.4762   36.3270   33.5733 C   0  0  0  0  0  0  0  0  0  0  0  0
   13.1179   37.6316   34.5689 C   0  0  0  0  0  0  0  0  0  0  0  0
   15.2067   35.6140   32.6743 N   0  0  0  0  0  0  0  0  0  0  0  0
   14.6731   36.2272   34.9186 C   0  0  0  0  0  0  0  0  0  0  0  0
   13.8223   37.0456   35.5785 N   0  0  0  0  0  0  0  0  0  0  0  0
   16.1639   34.7595   33.1550 C   0  0  0  0  0  0  0  0  0  0  0  0
   15.6515   35.3491   35.4134 C   0  0  0  0  0  0  0  0  0  0  0  0
   16.3792   34.6310   34.5045 N   0  0  0  0  0  0  0  0  0  0  0  0
   15.9002   35.1933   36.8092 N   0  0  0  0  0  0  0  0  0  0  0  0
    9.8106   44.9953   32.1509 H   0  0  0  0  0  0  0  0  0  0  0  0
   11.9220   45.7036   32.9820 H   0  0  0  0  0  0  0  0  0  0  0  0
   11.2750   46.1196   34.4981 H   0  0  0  0  0  0  0  0  0  0  0  0
    7.8326   44.9361   33.7077 H   0  0  0  0  0  0  0  0  0  0  0  0
    8.7924   45.7855   34.9672 H   0  0  0  0  0  0  0  0  0  0  0  0
    8.8292   50.2107   34.0314 H   0  0  0  0  0  0  0  0  0  0  0  0
    7.4547   49.6116   33.0819 H   0  0  0  0  0  0  0  0  0  0  0  0
   11.1905   49.0549   33.1638 H   0  0  0  0  0  0  0  0  0  0  0  0
    9.4578   50.6451   28.8002 H   0  0  0  0  0  0  0  0  0  0  0  0
   12.7265   49.4165   31.2771 H   0  0  0  0  0  0  0  0  0  0  0  0
   11.8651   50.2247   29.1027 H   0  0  0  0  0  0  0  0  0  0  0  0
    9.8232   40.7210   31.7578 H   0  0  0  0  0  0  0  0  0  0  0  0
   11.3854   41.5434   31.4688 H   0  0  0  0  0  0  0  0  0  0  0  0
   11.6993   39.5065   30.3487 H   0  0  0  0  0  0  0  0  0  0  0  0
   10.1120   38.2722   32.6631 H   0  0  0  0  0  0  0  0  0  0  0  0
   13.6816   37.4633   31.2269 H   0  0  0  0  0  0  0  0  0  0  0  0
    9.0037   37.3827   30.9348 H   0  0  0  0  0  0  0  0  0  0  0  0
   11.2846   36.3040   32.4928 H   0  0  0  0  0  0  0  0  0  0  0  0
   11.8850   36.9590   29.7588 H   0  0  0  0  0  0  0  0  0  0  0  0
   12.3363   38.3599   34.7441 H   0  0  0  0  0  0  0  0  0  0  0  0
   16.7574   34.1791   32.4623 H   0  0  0  0  0  0  0  0  0  0  0  0
   15.3529   35.7355   37.5141 H   0  0  0  0  0  0  0  0  0  0  0  0
   16.6363   34.5316   37.1418 H   0  0  0  0  0  0  0  0  0  0  0  0
  1  2  2  0
  1  3  1  0
  3  4  1  0
  4  5  1  0
  6  1  1  0
  7  6  1  0
  6  8  1  0
  8  9  1  0
  9 10  1  0
  9 11  2  0
 10 12  1  0
 12 13  1  0
 13 14  2  0
 15 13  1  0
 14 16  1  0
 14 17  1  0
 18 15  2  0
 16 19  1  0
 16 20  2  0
 17 21  2  0
 21 18  1  0
  4 22  2  0
  4 23  1  0
 24 23  1  0
 24 25  1  0
 25 26  1  0
 25 27  1  0
 26 28  1  0
 27 29  1  0
 27 30  1  0
 30 28  1  0
 28 31  1  0
 30 32  1  0
 33 31  1  0
 34 31  1  0
 35 33  2  0
 33 36  1  0
 37 34  2  0
 38 35  1  0
 36 39  2  0
 36 37  1  0
 40 38  2  0
 40 39  1  0
 39 41  1  0
  6 42  1  6
  7 43  1  0
  7 44  1  0
  8 45  1  0
  8 46  1  0
 12 47  1  0
 12 48  1  0
 15 49  1  0
 17 50  1  0
 18 51  1  0
 21 52  1  0
 24 53  1  0
 24 54  1  0
 25 55  1  0
 27 56  1  0
 28 57  1  0
 29 58  1  0
 30 59  1  0
 32 60  1  0
 34 61  1  0
 38 62  1  0
 41 63  1  0
 41 64  1  0
M  CHG  3   5  -1  16   1  19  -1
M  END
>  <EmbedRMS>  (461) 
0.08835797541835512

$$$$

     RDKit          3D

 64 67  0  0  0  0  0  0  0  0999 V2000
   10.2820   43.7759   33.8093 C   0  0  0  0  0  0  0  0  0  0  0  0
   11.4051   43.5927   34.3649 O   0  0  0  0  0  0  0  0  0  0  0  0
    9.3752   42.7265   33.6885 O   0  0  0  0  0  0  0  0  0  0  0  0
    9.8877   41.2324   34.2818 P   0  0  0  0  0  5  0  0  0  0  0  0
   10.3644   41.4716   35.8730 O   0  0  0  0  0  1  0  0  0  0  0  0
    9.9371   45.1286   33.2779 C   0  0  2  0  0  0  0  0  0  0  0  0
   11.0832   46.0216   33.4571 N   0  0  0  0  0  0  0  0  0  0  0  0
    8.7142   45.7175   34.0159 C   0  0  0  0  0  0  0  0  0  0  0  0
    7.4511   44.9751   33.7019 C   0  0  0  0  0  0  0  0  0  0  0  0
    7.0588   43.9177   34.5261 O   0  0  0  0  0  0  0  0  0  0  0  0
    6.7838   45.2741   32.6742 O   0  0  0  0  0  0  0  0  0  0  0  0
    5.9662   43.0555   34.2216 C   0  0  0  0  0  0  0  0  0  0  0  0
    5.9761   41.8451   35.1280 C   0  0  0  0  0  0  0  0  0  0  0  0
    5.4581   40.5939   34.7005 C   0  0  0  0  0  0  0  0  0  0  0  0
    6.5142   41.9540   36.4261 C   0  0  0  0  0  0  0  0  0  0  0  0
    4.8090   40.4422   33.4260 N   0  0  0  0  0  4  0  0  0  0  0  0
    5.5729   39.4765   35.5474 C   0  0  0  0  0  0  0  0  0  0  0  0
    6.6027   40.8366   37.2573 C   0  0  0  0  0  0  0  0  0  0  0  0
    3.9292   41.3996   32.9758 O   0  0  0  0  0  1  0  0  0  0  0  0
    4.8932   39.3628   32.8043 O   0  0  0  0  0  0  0  0  0  0  0  0
    6.1440   39.5981   36.8145 C   0  0  0  0  0  0  0  0  0  0  0  0
    8.8090   40.1908   34.2065 O   0  0  0  0  0  0  0  0  0  0  0  0
   11.2389   40.7868   33.3668 O   0  0  0  0  0  0  0  0  0  0  0  0
   10.9159   40.6843   31.9936 C   0  0  0  0  0  0  0  0  0  0  0  0
   11.5169   39.3770   31.4387 C   0  0  0  0  0  0  0  0  0  0  0  0
   12.7477   39.0849   32.0727 O   0  0  0  0  0  0  0  0  0  0  0  0
   10.6047   38.1867   31.6669 C   0  0  0  0  0  0  0  0  0  0  0  0
   12.9346   37.6787   32.0275 C   0  0  0  0  0  0  0  0  0  0  0  0
    9.6376   38.0919   30.6490 O   0  0  0  0  0  0  0  0  0  0  0  0
   11.5759   37.0127   31.7054 C   0  0  0  0  0  0  0  0  0  0  0  0
   13.4907   37.2179   33.3227 N   0  0  0  0  0  0  0  0  0  0  0  0
   11.6229   36.3370   30.4681 O   0  0  0  0  0  0  0  0  0  0  0  0
   14.4761   36.3274   33.5727 C   0  0  0  0  0  0  0  0  0  0  0  0
   13.1172   37.6322   34.5675 C   0  0  0  0  0  0  0  0  0  0  0  0
   15.2066   35.6138   32.6745 N   0  0  0  0  0  0  0  0  0  0  0  0
   14.6725   36.2285   34.9182 C   0  0  0  0  0  0  0  0  0  0  0  0
   13.8213   37.0469   35.5773 N   0  0  0  0  0  0  0  0  0  0  0  0
   16.1636   34.7595   33.1562 C   0  0  0  0  0  0  0  0  0  0  0  0
   15.6512   35.3497   35.4143 C   0  0  0  0  0  0  0  0  0  0  0  0
   16.3784   34.6317   34.5060 N   0  0  0  0  0  0  0  0  0  0  0  0
   15.9058   35.1882   36.8088 N   0  0  0  0  0  0  0  0  0  0  0  0
    9.7075   45.0402   32.1915 H   0  0  0  0  0  0  0  0  0  0  0  0
   10.8377   46.9609   33.0672 H   0  0  0  0  0  0  0  0  0  0  0  0
   11.8695   45.6740   32.8597 H   0  0  0  0  0  0  0  0  0  0  0  0
    8.8891   45.7009   35.1141 H   0  0  0  0  0  0  0  0  0  0  0  0
    8.5741   46.7802   33.7200 H   0  0  0  0  0  0  0  0  0  0  0  0
    6.0674   42.7300   33.1639 H   0  0  0  0  0  0  0  0  0  0  0  0
    5.0107   43.6071   34.3486 H   0  0  0  0  0  0  0  0  0  0  0  0
    6.8845   42.9021   36.7951 H   0  0  0  0  0  0  0  0  0  0  0  0
    5.1959   38.5112   35.2338 H   0  0  0  0  0  0  0  0  0  0  0  0
    7.0327   40.9313   38.2462 H   0  0  0  0  0  0  0  0  0  0  0  0
    6.2177   38.7322   37.4599 H   0  0  0  0  0  0  0  0  0  0  0  0
   11.3902   41.5410   31.4688 H   0  0  0  0  0  0  0  0  0  0  0  0
    9.8259   40.7219   31.7563 H   0  0  0  0  0  0  0  0  0  0  0  0
   11.6983   39.5013   30.3460 H   0  0  0  0  0  0  0  0  0  0  0  0
   10.1100   38.2775   32.6630 H   0  0  0  0  0  0  0  0  0  0  0  0
   13.6673   37.4536   31.2207 H   0  0  0  0  0  0  0  0  0  0  0  0
    8.9758   37.4184   30.9551 H   0  0  0  0  0  0  0  0  0  0  0  0
   11.2860   36.3038   32.5174 H   0  0  0  0  0  0  0  0  0  0  0  0
   10.8678   35.6925   30.4653 H   0  0  0  0  0  0  0  0  0  0  0  0
   12.3344   38.3591   34.7423 H   0  0  0  0  0  0  0  0  0  0  0  0
   16.7572   34.1785   32.4639 H   0  0  0  0  0  0  0  0  0  0  0  0
   15.3667   35.7232   37.5254 H   0  0  0  0  0  0  0  0  0  0  0  0
   15.3663   35.7235   37.5248 H   0  0  0  0  0  0  0  0  0  0  0  0
  1  2  2  0
  1  3  1  0
  3  4  1  0
  4  5  1  0
  6  1  1  0
  7  6  1  0
  6  8  1  0
  8  9  1  0
  9 10  1  0
  9 11  2  0
 10 12  1  0
 12 13  1  0
 13 14  2  0
 15 13  1  0
 14 16  1  0
 14 17  1  0
 18 15  2  0
 16 19  1  0
 16 20  2  0
 17 21  2  0
 21 18  1  0
  4 22  2  0
  4 23  1  0
 24 23  1  0
 24 25  1  0
 25 26  1  0
 25 27  1  0
 26 28  1  0
 27 29  1  0
 27 30  1  0
 30 28  1  0
 28 31  1  0
 30 32  1  0
 33 31  1  0
 34 31  1  0
 35 33  2  0
 33 36  1  0
 37 34  2  0
 38 35  1  0
 36 39  2  0
 36 37  1  0
 40 38  2  0
 40 39  1  0
 39 41  1  0
  6 42  1  6
  7 43  1  0
  7 44  1  0
  8 45  1  0
  8 46  1  0
 12 47  1  0
 12 48  1  0
 15 49  1  0
 17 50  1  0
 18 51  1  0
 21 52  1  0
 24 53  1  0
 24 54  1  0
 25 55  1  0
 27 56  1  0
 28 57  1  0
 29 58  1  0
 30 59  1  0
 32 60  1  0
 34 61  1  0
 38 62  1  0
 41 63  1  0
 41 64  1  0
M  CHG  3   5  -1  16   1  19  -1
M  END
>  <EmbedRMS>  (462) 
0.0901038156975793

$$$$

     RDKit          3D

 64 67  0  0  0  0  0  0  0  0999 V2000
   10.2834   43.7724   33.8138 C   0  0  0  0  0  0  0  0  0  0  0  0
   11.4076   43.5834   34.3649 O   0  0  0  0  0  0  0  0  0  0  0  0
    9.3688   42.7287   33.7021 O   0  0  0  0  0  0  0  0  0  0  0  0
    9.8858   41.2315   34.2831 P   0  0  0  0  0  5  0  0  0  0  0  0
   10.3665   41.4662   35.8737 O   0  0  0  0  0  1  0  0  0  0  0  0
    9.9597   45.1169   33.2465 C   0  0  2  0  0  0  0  0  0  0  0  0
   11.0692   46.0456   33.4712 N   0  0  0  0  0  0  0  0  0  0  0  0
    8.6741   45.7073   33.8615 C   0  0  0  0  0  0  0  0  0  0  0  0
    7.4373   44.9289   33.5147 C   0  0  0  0  0  0  0  0  0  0  0  0
    7.3534   44.2553   32.2925 O   0  0  0  0  0  0  0  0  0  0  0  0
    6.4654   44.9188   34.3183 O   0  0  0  0  0  0  0  0  0  0  0  0
    6.2359   43.4550   31.9263 C   0  0  0  0  0  0  0  0  0  0  0  0
    6.5430   42.7380   30.6384 C   0  0  0  0  0  0  0  0  0  0  0  0
    6.3579   43.3460   29.3672 C   0  0  0  0  0  0  0  0  0  0  0  0
    7.0466   41.4263   30.7070 C   0  0  0  0  0  0  0  0  0  0  0  0
    5.8972   44.7025   29.2280 N   0  0  0  0  0  4  0  0  0  0  0  0
    6.6278   42.5983   28.2071 C   0  0  0  0  0  0  0  0  0  0  0  0
    7.3234   40.7088   29.5431 C   0  0  0  0  0  0  0  0  0  0  0  0
    5.1745   45.0710   28.1165 O   0  0  0  0  0  1  0  0  0  0  0  0
    6.2924   45.5933   30.0076 O   0  0  0  0  0  0  0  0  0  0  0  0
    7.1081   41.2909   28.2958 C   0  0  0  0  0  0  0  0  0  0  0  0
    8.8071   40.1902   34.2067 O   0  0  0  0  0  0  0  0  0  0  0  0
   11.2372   40.7898   33.3653 O   0  0  0  0  0  0  0  0  0  0  0  0
   10.9138   40.6848   31.9926 C   0  0  0  0  0  0  0  0  0  0  0  0
   11.5162   39.3773   31.4388 C   0  0  0  0  0  0  0  0  0  0  0  0
   12.7470   39.0856   32.0734 O   0  0  0  0  0  0  0  0  0  0  0  0
   10.6046   38.1867   31.6671 C   0  0  0  0  0  0  0  0  0  0  0  0
   12.9344   37.6792   32.0281 C   0  0  0  0  0  0  0  0  0  0  0  0
    9.6387   38.0904   30.6486 O   0  0  0  0  0  0  0  0  0  0  0  0
   11.5760   37.0130   31.7059 C   0  0  0  0  0  0  0  0  0  0  0  0
   13.4910   37.2180   33.3233 N   0  0  0  0  0  0  0  0  0  0  0  0
   11.6232   36.3370   30.4687 O   0  0  0  0  0  0  0  0  0  0  0  0
   14.4765   36.3273   33.5727 C   0  0  0  0  0  0  0  0  0  0  0  0
   13.1182   37.6317   34.5685 C   0  0  0  0  0  0  0  0  0  0  0  0
   15.2066   35.6138   32.6739 N   0  0  0  0  0  0  0  0  0  0  0  0
   14.6735   36.2277   34.9181 C   0  0  0  0  0  0  0  0  0  0  0  0
   13.8226   37.0458   35.5781 N   0  0  0  0  0  0  0  0  0  0  0  0
   16.1637   34.7593   33.1547 C   0  0  0  0  0  0  0  0  0  0  0  0
   15.6516   35.3493   35.4131 C   0  0  0  0  0  0  0  0  0  0  0  0
   16.3792   34.6310   34.5042 N   0  0  0  0  0  0  0  0  0  0  0  0
   15.9002   35.1934   36.8089 N   0  0  0  0  0  0  0  0  0  0  0  0
    9.8200   45.0081   32.1483 H   0  0  0  0  0  0  0  0  0  0  0  0
   11.9242   45.6939   32.9804 H   0  0  0  0  0  0  0  0  0  0  0  0
   11.2794   46.1181   34.4945 H   0  0  0  0  0  0  0  0  0  0  0  0
    8.5369   46.7446   33.4870 H   0  0  0  0  0  0  0  0  0  0  0  0
    8.7814   45.7587   34.9677 H   0  0  0  0  0  0  0  0  0  0  0  0
    6.0261   42.7192   32.7342 H   0  0  0  0  0  0  0  0  0  0  0  0
    5.3288   44.0872   31.8187 H   0  0  0  0  0  0  0  0  0  0  0  0
    7.2161   40.9520   31.6661 H   0  0  0  0  0  0  0  0  0  0  0  0
    6.4867   43.0371   27.2275 H   0  0  0  0  0  0  0  0  0  0  0  0
    7.6996   39.6969   29.6082 H   0  0  0  0  0  0  0  0  0  0  0  0
    7.3209   40.7306   27.3945 H   0  0  0  0  0  0  0  0  0  0  0  0
    9.8243   40.7204   31.7564 H   0  0  0  0  0  0  0  0  0  0  0  0
   11.3856   41.5417   31.4661 H   0  0  0  0  0  0  0  0  0  0  0  0
   11.6977   39.5012   30.3461 H   0  0  0  0  0  0  0  0  0  0  0  0
   10.1092   38.2776   32.6629 H   0  0  0  0  0  0  0  0  0  0  0  0
   13.6670   37.4544   31.2211 H   0  0  0  0  0  0  0  0  0  0  0  0
    8.9717   37.4239   30.9584 H   0  0  0  0  0  0  0  0  0  0  0  0
   11.2860   36.3043   32.5180 H   0  0  0  0  0  0  0  0  0  0  0  0
   10.8674   35.6933   30.4654 H   0  0  0  0  0  0  0  0  0  0  0  0
   12.3355   38.3588   34.7439 H   0  0  0  0  0  0  0  0  0  0  0  0
   16.7571   34.1786   32.4620 H   0  0  0  0  0  0  0  0  0  0  0  0
   15.3530   35.7358   37.5137 H   0  0  0  0  0  0  0  0  0  0  0  0
   16.6360   34.5316   37.1415 H   0  0  0  0  0  0  0  0  0  0  0  0
  1  2  2  0
  1  3  1  0
  3  4  1  0
  4  5  1  0
  6  1  1  0
  7  6  1  0
  6  8  1  0
  8  9  1  0
  9 10  1  0
  9 11  2  0
 10 12  1  0
 12 13  1  0
 13 14  2  0
 15 13  1  0
 14 16  1  0
 14 17  1  0
 18 15  2  0
 16 19  1  0
 16 20  2  0
 17 21  2  0
 21 18  1  0
  4 22  2  0
  4 23  1  0
 24 23  1  0
 24 25  1  0
 25 26  1  0
 25 27  1  0
 26 28  1  0
 27 29  1  0
 27 30  1  0
 30 28  1  0
 28 31  1  0
 30 32  1  0
 33 31  1  0
 34 31  1  0
 35 33  2  0
 33 36  1  0
 37 34  2  0
 38 35  1  0
 36 39  2  0
 36 37  1  0
 40 38  2  0
 40 39  1  0
 39 41  1  0
  6 42  1  6
  7 43  1  0
  7 44  1  0
  8 45  1  0
  8 46  1  0
 12 47  1  0
 12 48  1  0
 15 49  1  0
 17 50  1  0
 18 51  1  0
 21 52  1  0
 24 53  1  0
 24 54  1  0
 25 55  1  0
 27 56  1  0
 28 57  1  0
 29 58  1  0
 30 59  1  0
 32 60  1  0
 34 61  1  0
 38 62  1  0
 41 63  1  0
 41 64  1  0
M  CHG  3   5  -1  16   1  19  -1
M  END
>  <EmbedRMS>  (463) 
0.08984496281675985

$$$$

     RDKit          3D

 64 67  0  0  0  0  0  0  0  0999 V2000
   10.2811   43.7767   33.8108 C   0  0  0  0  0  0  0  0  0  0  0  0
   11.4067   43.5929   34.3611 O   0  0  0  0  0  0  0  0  0  0  0  0
    9.3678   42.7310   33.7072 O   0  0  0  0  0  0  0  0  0  0  0  0
    9.8865   41.2337   34.2855 P   0  0  0  0  0  5  0  0  0  0  0  0
   10.3681   41.4668   35.8757 O   0  0  0  0  0  1  0  0  0  0  0  0
    9.9634   45.1112   33.2242 C   0  0  2  0  0  0  0  0  0  0  0  0
   11.0698   46.0303   33.4963 N   0  0  0  0  0  0  0  0  0  0  0  0
    8.6326   45.6848   33.7697 C   0  0  0  0  0  0  0  0  0  0  0  0
    7.4154   44.9564   33.2713 C   0  0  0  0  0  0  0  0  0  0  0  0
    7.5166   44.0725   32.1934 O   0  0  0  0  0  0  0  0  0  0  0  0
    6.3000   45.1713   33.8187 O   0  0  0  0  0  0  0  0  0  0  0  0
    6.4183   43.3264   31.6834 C   0  0  0  0  0  0  0  0  0  0  0  0
    6.9243   42.3115   30.6885 C   0  0  0  0  0  0  0  0  0  0  0  0
    7.7785   42.6709   29.6109 C   0  0  0  0  0  0  0  0  0  0  0  0
    6.5752   40.9597   30.8657 C   0  0  0  0  0  0  0  0  0  0  0  0
    8.1541   44.0380   29.3634 N   0  0  0  0  0  4  0  0  0  0  0  0
    8.2813   41.6618   28.7695 C   0  0  0  0  0  0  0  0  0  0  0  0
    7.0684   39.9781   30.0059 C   0  0  0  0  0  0  0  0  0  0  0  0
    7.2343   45.0525   29.4914 O   0  0  0  0  0  1  0  0  0  0  0  0
    9.2745   44.3013   28.8794 O   0  0  0  0  0  0  0  0  0  0  0  0
    7.9232   40.3278   28.9629 C   0  0  0  0  0  0  0  0  0  0  0  0
    8.8081   40.1918   34.2079 O   0  0  0  0  0  0  0  0  0  0  0  0
   11.2365   40.7928   33.3662 O   0  0  0  0  0  0  0  0  0  0  0  0
   10.9110   40.6893   31.9943 C   0  0  0  0  0  0  0  0  0  0  0  0
   11.5248   39.3897   31.4365 C   0  0  0  0  0  0  0  0  0  0  0  0
   12.7491   39.0927   32.0833 O   0  0  0  0  0  0  0  0  0  0  0  0
   10.6118   38.1905   31.6453 C   0  0  0  0  0  0  0  0  0  0  0  0
   12.9427   37.6862   32.0294 C   0  0  0  0  0  0  0  0  0  0  0  0
    9.6082   38.0817   30.6603 O   0  0  0  0  0  0  0  0  0  0  0  0
   11.5850   37.0185   31.6885 C   0  0  0  0  0  0  0  0  0  0  0  0
   13.4902   37.2173   33.3249 N   0  0  0  0  0  0  0  0  0  0  0  0
   11.6209   36.3056   30.4700 O   0  0  0  0  0  0  0  0  0  0  0  0
   14.4759   36.3268   33.5737 C   0  0  0  0  0  0  0  0  0  0  0  0
   13.1177   37.6313   34.5699 C   0  0  0  0  0  0  0  0  0  0  0  0
   15.2064   35.6142   32.6745 N   0  0  0  0  0  0  0  0  0  0  0  0
   14.6730   36.2269   34.9190 C   0  0  0  0  0  0  0  0  0  0  0  0
   13.8223   37.0452   35.5791 N   0  0  0  0  0  0  0  0  0  0  0  0
   16.1638   34.7597   33.1550 C   0  0  0  0  0  0  0  0  0  0  0  0
   15.6516   35.3490   35.4135 C   0  0  0  0  0  0  0  0  0  0  0  0
   16.3793   34.6310   34.5044 N   0  0  0  0  0  0  0  0  0  0  0  0
   15.9005   35.1931   36.8093 N   0  0  0  0  0  0  0  0  0  0  0  0
    9.8882   44.9881   32.1208 H   0  0  0  0  0  0  0  0  0  0  0  0
   11.0625   46.2965   34.5088 H   0  0  0  0  0  0  0  0  0  0  0  0
   10.9204   46.9066   32.9447 H   0  0  0  0  0  0  0  0  0  0  0  0
    8.6429   45.6628   34.8817 H   0  0  0  0  0  0  0  0  0  0  0  0
    8.5373   46.7461   33.4546 H   0  0  0  0  0  0  0  0  0  0  0  0
    5.8999   42.8224   32.5289 H   0  0  0  0  0  0  0  0  0  0  0  0
    5.6873   44.0049   31.1961 H   0  0  0  0  0  0  0  0  0  0  0  0
    5.9263   40.6594   31.6791 H   0  0  0  0  0  0  0  0  0  0  0  0
    8.9390   41.9124   27.9468 H   0  0  0  0  0  0  0  0  0  0  0  0
    6.7936   38.9418   30.1546 H   0  0  0  0  0  0  0  0  0  0  0  0
    8.3080   39.5635   28.3003 H   0  0  0  0  0  0  0  0  0  0  0  0
    9.8198   40.7159   31.7599 H   0  0  0  0  0  0  0  0  0  0  0  0
   11.3730   41.5528   31.4696 H   0  0  0  0  0  0  0  0  0  0  0  0
   11.7287   39.5334   30.3509 H   0  0  0  0  0  0  0  0  0  0  0  0
   10.1202   38.2675   32.6409 H   0  0  0  0  0  0  0  0  0  0  0  0
   13.6881   37.4722   31.2318 H   0  0  0  0  0  0  0  0  0  0  0  0
   10.0283   38.1665   29.7660 H   0  0  0  0  0  0  0  0  0  0  0  0
   11.2805   36.3124   32.4924 H   0  0  0  0  0  0  0  0  0  0  0  0
   11.9893   36.9084   29.7722 H   0  0  0  0  0  0  0  0  0  0  0  0
   12.3366   38.3601   34.7454 H   0  0  0  0  0  0  0  0  0  0  0  0
   16.7574   34.1795   32.4621 H   0  0  0  0  0  0  0  0  0  0  0  0
   16.6366   34.5316   37.1417 H   0  0  0  0  0  0  0  0  0  0  0  0
   15.3531   35.7352   37.5143 H   0  0  0  0  0  0  0  0  0  0  0  0
  1  2  2  0
  1  3  1  0
  3  4  1  0
  4  5  1  0
  6  1  1  0
  7  6  1  0
  6  8  1  0
  8  9  1  0
  9 10  1  0
  9 11  2  0
 10 12  1  0
 12 13  1  0
 13 14  2  0
 15 13  1  0
 14 16  1  0
 14 17  1  0
 18 15  2  0
 16 19  1  0
 16 20  2  0
 17 21  2  0
 21 18  1  0
  4 22  2  0
  4 23  1  0
 24 23  1  0
 24 25  1  0
 25 26  1  0
 25 27  1  0
 26 28  1  0
 27 29  1  0
 27 30  1  0
 30 28  1  0
 28 31  1  0
 30 32  1  0
 33 31  1  0
 34 31  1  0
 35 33  2  0
 33 36  1  0
 37 34  2  0
 38 35  1  0
 36 39  2  0
 36 37  1  0
 40 38  2  0
 40 39  1  0
 39 41  1  0
  6 42  1  6
  7 43  1  0
  7 44  1  0
  8 45  1  0
  8 46  1  0
 12 47  1  0
 12 48  1  0
 15 49  1  0
 17 50  1  0
 18 51  1  0
 21 52  1  0
 24 53  1  0
 24 54  1  0
 25 55  1  0
 27 56  1  0
 28 57  1  0
 29 58  1  0
 30 59  1  0
 32 60  1  0
 34 61  1  0
 38 62  1  0
 41 63  1  0
 41 64  1  0
M  CHG  3   5  -1  16   1  19  -1
M  END
>  <EmbedRMS>  (464) 
0.08702228019875835

$$$$

     RDKit          3D

 64 67  0  0  0  0  0  0  0  0999 V2000
   10.2808   43.7760   33.8099 C   0  0  0  0  0  0  0  0  0  0  0  0
   11.4069   43.5917   34.3593 O   0  0  0  0  0  0  0  0  0  0  0  0
    9.3682   42.7300   33.6999 O   0  0  0  0  0  0  0  0  0  0  0  0
    9.8869   41.2337   34.2833 P   0  0  0  0  0  5  0  0  0  0  0  0
   10.3676   41.4692   35.8737 O   0  0  0  0  0  1  0  0  0  0  0  0
    9.9525   45.1158   33.2449 C   0  0  2  0  0  0  0  0  0  0  0  0
   11.0744   46.0261   33.4814 N   0  0  0  0  0  0  0  0  0  0  0  0
    8.6538   45.6906   33.8530 C   0  0  0  0  0  0  0  0  0  0  0  0
    7.4415   44.9251   33.4167 C   0  0  0  0  0  0  0  0  0  0  0  0
    7.0954   44.8981   32.0599 O   0  0  0  0  0  0  0  0  0  0  0  0
    6.7451   44.3137   34.2726 O   0  0  0  0  0  0  0  0  0  0  0  0
    5.9913   44.1534   31.5435 C   0  0  0  0  0  0  0  0  0  0  0  0
    4.7051   44.9570   31.4982 C   0  0  0  0  0  0  0  0  0  0  0  0
    3.6023   44.5147   30.7164 C   0  0  0  0  0  0  0  0  0  0  0  0
    4.5855   46.1646   32.2190 C   0  0  0  0  0  0  0  0  0  0  0  0
    3.6429   43.2788   29.9789 N   0  0  0  0  0  4  0  0  0  0  0  0
    2.4422   45.3081   30.6493 C   0  0  0  0  0  0  0  0  0  0  0  0
    3.4186   46.9265   32.1496 C   0  0  0  0  0  0  0  0  0  0  0  0
    4.2038   42.1504   30.5303 O   0  0  0  0  0  1  0  0  0  0  0  0
    3.0203   43.1727   28.9019 O   0  0  0  0  0  0  0  0  0  0  0  0
    2.3517   46.5024   31.3626 C   0  0  0  0  0  0  0  0  0  0  0  0
    8.8087   40.1914   34.2082 O   0  0  0  0  0  0  0  0  0  0  0  0
   11.2377   40.7906   33.3655 O   0  0  0  0  0  0  0  0  0  0  0  0
   10.9135   40.6843   31.9930 C   0  0  0  0  0  0  0  0  0  0  0  0
   11.5174   39.3773   31.4393 C   0  0  0  0  0  0  0  0  0  0  0  0
   12.7477   39.0869   32.0755 O   0  0  0  0  0  0  0  0  0  0  0  0
   10.6068   38.1852   31.6656 C   0  0  0  0  0  0  0  0  0  0  0  0
   12.9371   37.6811   32.0290 C   0  0  0  0  0  0  0  0  0  0  0  0
    9.6403   38.0883   30.6475 O   0  0  0  0  0  0  0  0  0  0  0  0
   11.5788   37.0134   31.7045 C   0  0  0  0  0  0  0  0  0  0  0  0
   13.4915   37.2182   33.3239 N   0  0  0  0  0  0  0  0  0  0  0  0
   11.6124   36.3389   30.4673 O   0  0  0  0  0  0  0  0  0  0  0  0
   14.4766   36.3272   33.5730 C   0  0  0  0  0  0  0  0  0  0  0  0
   13.1184   37.6317   34.5690 C   0  0  0  0  0  0  0  0  0  0  0  0
   15.2066   35.6139   32.6740 N   0  0  0  0  0  0  0  0  0  0  0  0
   14.6735   36.2274   34.9184 C   0  0  0  0  0  0  0  0  0  0  0  0
   13.8227   37.0455   35.5785 N   0  0  0  0  0  0  0  0  0  0  0  0
   16.1637   34.7593   33.1548 C   0  0  0  0  0  0  0  0  0  0  0  0
   15.6517   35.3491   35.4132 C   0  0  0  0  0  0  0  0  0  0  0  0
   16.3792   34.6308   34.5043 N   0  0  0  0  0  0  0  0  0  0  0  0
   15.9003   35.1932   36.8090 N   0  0  0  0  0  0  0  0  0  0  0  0
    9.8245   44.9994   32.1456 H   0  0  0  0  0  0  0  0  0  0  0  0
   10.9075   46.9085   32.9448 H   0  0  0  0  0  0  0  0  0  0  0  0
   11.1112   46.2829   34.4958 H   0  0  0  0  0  0  0  0  0  0  0  0
    8.7234   45.6952   34.9636 H   0  0  0  0  0  0  0  0  0  0  0  0
    8.5254   46.7433   33.5214 H   0  0  0  0  0  0  0  0  0  0  0  0
    5.8418   43.2282   32.1404 H   0  0  0  0  0  0  0  0  0  0  0  0
    6.2557   43.8505   30.5084 H   0  0  0  0  0  0  0  0  0  0  0  0
    5.3937   46.5386   32.8304 H   0  0  0  0  0  0  0  0  0  0  0  0
    1.5952   44.9899   30.0546 H   0  0  0  0  0  0  0  0  0  0  0  0
    3.3445   47.8532   32.7042 H   0  0  0  0  0  0  0  0  0  0  0  0
    1.4496   47.0981   31.3084 H   0  0  0  0  0  0  0  0  0  0  0  0
   11.3846   41.5414   31.4660 H   0  0  0  0  0  0  0  0  0  0  0  0
    9.8232   40.7188   31.7574 H   0  0  0  0  0  0  0  0  0  0  0  0
   11.7006   39.5017   30.3469 H   0  0  0  0  0  0  0  0  0  0  0  0
   10.1097   38.2752   32.6605 H   0  0  0  0  0  0  0  0  0  0  0  0
   13.6713   37.4591   31.2227 H   0  0  0  0  0  0  0  0  0  0  0  0
    9.0029   37.3839   30.9353 H   0  0  0  0  0  0  0  0  0  0  0  0
   11.2705   36.3048   32.5088 H   0  0  0  0  0  0  0  0  0  0  0  0
   12.1442   35.5136   30.6141 H   0  0  0  0  0  0  0  0  0  0  0  0
   12.3361   38.3592   34.7444 H   0  0  0  0  0  0  0  0  0  0  0  0
   16.7571   34.1787   32.4620 H   0  0  0  0  0  0  0  0  0  0  0  0
   15.3531   35.7356   37.5139 H   0  0  0  0  0  0  0  0  0  0  0  0
   16.6362   34.5314   37.1416 H   0  0  0  0  0  0  0  0  0  0  0  0
  1  2  2  0
  1  3  1  0
  3  4  1  0
  4  5  1  0
  6  1  1  0
  7  6  1  0
  6  8  1  0
  8  9  1  0
  9 10  1  0
  9 11  2  0
 10 12  1  0
 12 13  1  0
 13 14  2  0
 15 13  1  0
 14 16  1  0
 14 17  1  0
 18 15  2  0
 16 19  1  0
 16 20  2  0
 17 21  2  0
 21 18  1  0
  4 22  2  0
  4 23  1  0
 24 23  1  0
 24 25  1  0
 25 26  1  0
 25 27  1  0
 26 28  1  0
 27 29  1  0
 27 30  1  0
 30 28  1  0
 28 31  1  0
 30 32  1  0
 33 31  1  0
 34 31  1  0
 35 33  2  0
 33 36  1  0
 37 34  2  0
 38 35  1  0
 36 39  2  0
 36 37  1  0
 40 38  2  0
 40 39  1  0
 39 41  1  0
  6 42  1  6
  7 43  1  0
  7 44  1  0
  8 45  1  0
  8 46  1  0
 12 47  1  0
 12 48  1  0
 15 49  1  0
 17 50  1  0
 18 51  1  0
 21 52  1  0
 24 53  1  0
 24 54  1  0
 25 55  1  0
 27 56  1  0
 28 57  1  0
 29 58  1  0
 30 59  1  0
 32 60  1  0
 34 61  1  0
 38 62  1  0
 41 63  1  0
 41 64  1  0
M  CHG  3   5  -1  16   1  19  -1
M  END
>  <EmbedRMS>  (465) 
0.08877346952648874

$$$$

     RDKit          3D

 64 67  0  0  0  0  0  0  0  0999 V2000
   10.2862   43.7719   33.8046 C   0  0  0  0  0  0  0  0  0  0  0  0
   11.4086   43.5885   34.3611 O   0  0  0  0  0  0  0  0  0  0  0  0
    9.3678   42.7307   33.6989 O   0  0  0  0  0  0  0  0  0  0  0  0
    9.8859   41.2338   34.2836 P   0  0  0  0  0  5  0  0  0  0  0  0
   10.3654   41.4699   35.8743 O   0  0  0  0  0  1  0  0  0  0  0  0
    9.9530   45.1147   33.2535 C   0  0  2  0  0  0  0  0  0  0  0  0
   11.0712   46.0332   33.4765 N   0  0  0  0  0  0  0  0  0  0  0  0
    8.6605   45.6655   33.8893 C   0  0  0  0  0  0  0  0  0  0  0  0
    8.7934   45.8653   35.3698 C   0  0  0  0  0  0  0  0  0  0  0  0
    9.3666   47.0455   35.8555 O   0  0  0  0  0  0  0  0  0  0  0  0
    8.4205   44.9563   36.1611 O   0  0  0  0  0  0  0  0  0  0  0  0
    9.5202   47.3250   37.2457 C   0  0  0  0  0  0  0  0  0  0  0  0
    8.1773   47.5544   37.9007 C   0  0  0  0  0  0  0  0  0  0  0  0
    7.2364   48.4901   37.3919 C   0  0  0  0  0  0  0  0  0  0  0  0
    7.8387   46.7843   39.0286 C   0  0  0  0  0  0  0  0  0  0  0  0
    7.5302   49.3210   36.2538 N   0  0  0  0  0  4  0  0  0  0  0  0
    5.9762   48.5973   38.0088 C   0  0  0  0  0  0  0  0  0  0  0  0
    6.5888   46.9182   39.6341 C   0  0  0  0  0  0  0  0  0  0  0  0
    8.7737   49.8884   36.1005 O   0  0  0  0  0  1  0  0  0  0  0  0
    6.6146   49.6660   35.4783 O   0  0  0  0  0  0  0  0  0  0  0  0
    5.6576   47.8192   39.1223 C   0  0  0  0  0  0  0  0  0  0  0  0
    8.8083   40.1911   34.2077 O   0  0  0  0  0  0  0  0  0  0  0  0
   11.2386   40.7898   33.3687 O   0  0  0  0  0  0  0  0  0  0  0  0
   10.9197   40.6894   31.9949 C   0  0  0  0  0  0  0  0  0  0  0  0
   11.5172   39.3800   31.4397 C   0  0  0  0  0  0  0  0  0  0  0  0
   12.7480   39.0860   32.0732 O   0  0  0  0  0  0  0  0  0  0  0  0
   10.6032   38.1891   31.6666 C   0  0  0  0  0  0  0  0  0  0  0  0
   12.9336   37.6796   32.0279 C   0  0  0  0  0  0  0  0  0  0  0  0
    9.6397   38.0777   30.6456 O   0  0  0  0  0  0  0  0  0  0  0  0
   11.5739   37.0154   31.7057 C   0  0  0  0  0  0  0  0  0  0  0  0
   13.4903   37.2178   33.3231 N   0  0  0  0  0  0  0  0  0  0  0  0
   11.6210   36.3376   30.4695 O   0  0  0  0  0  0  0  0  0  0  0  0
   14.4761   36.3273   33.5725 C   0  0  0  0  0  0  0  0  0  0  0  0
   13.1179   37.6316   34.5684 C   0  0  0  0  0  0  0  0  0  0  0  0
   15.2063   35.6139   32.6737 N   0  0  0  0  0  0  0  0  0  0  0  0
   14.6734   36.2277   34.9180 C   0  0  0  0  0  0  0  0  0  0  0  0
   13.8225   37.0459   35.5779 N   0  0  0  0  0  0  0  0  0  0  0  0
   16.1636   34.7594   33.1546 C   0  0  0  0  0  0  0  0  0  0  0  0
   15.6515   35.3494   35.4129 C   0  0  0  0  0  0  0  0  0  0  0  0
   16.3791   34.6311   34.5041 N   0  0  0  0  0  0  0  0  0  0  0  0
   15.9001   35.1935   36.8088 N   0  0  0  0  0  0  0  0  0  0  0  0
    9.7830   45.0053   32.1587 H   0  0  0  0  0  0  0  0  0  0  0  0
   10.8096   46.9718   33.0954 H   0  0  0  0  0  0  0  0  0  0  0  0
   11.8824   45.7128   32.8978 H   0  0  0  0  0  0  0  0  0  0  0  0
    8.4039   46.6391   33.4187 H   0  0  0  0  0  0  0  0  0  0  0  0
    7.8141   44.9747   33.6809 H   0  0  0  0  0  0  0  0  0  0  0  0
   10.0736   46.4878   37.7254 H   0  0  0  0  0  0  0  0  0  0  0  0
   10.1493   48.2296   37.3714 H   0  0  0  0  0  0  0  0  0  0  0  0
    8.5397   46.0664   39.4363 H   0  0  0  0  0  0  0  0  0  0  0  0
    5.2419   49.2997   37.6349 H   0  0  0  0  0  0  0  0  0  0  0  0
    6.3395   46.3166   40.4987 H   0  0  0  0  0  0  0  0  0  0  0  0
    4.6872   47.9181   39.5914 H   0  0  0  0  0  0  0  0  0  0  0  0
    9.8319   40.7398   31.7546 H   0  0  0  0  0  0  0  0  0  0  0  0
   11.4016   41.5436   31.4731 H   0  0  0  0  0  0  0  0  0  0  0  0
   11.6983   39.5042   30.3470 H   0  0  0  0  0  0  0  0  0  0  0  0
   10.1090   38.2632   32.6649 H   0  0  0  0  0  0  0  0  0  0  0  0
   13.6656   37.4539   31.2207 H   0  0  0  0  0  0  0  0  0  0  0  0
    8.8966   38.6901   30.8851 H   0  0  0  0  0  0  0  0  0  0  0  0
   11.2846   36.3060   32.5175 H   0  0  0  0  0  0  0  0  0  0  0  0
   10.8523   35.7094   30.4590 H   0  0  0  0  0  0  0  0  0  0  0  0
   12.3353   38.3588   34.7439 H   0  0  0  0  0  0  0  0  0  0  0  0
   16.7570   34.1788   32.4619 H   0  0  0  0  0  0  0  0  0  0  0  0
   16.6360   34.5317   37.1414 H   0  0  0  0  0  0  0  0  0  0  0  0
   15.3529   35.7359   37.5136 H   0  0  0  0  0  0  0  0  0  0  0  0
  1  2  2  0
  1  3  1  0
  3  4  1  0
  4  5  1  0
  6  1  1  0
  7  6  1  0
  6  8  1  0
  8  9  1  0
  9 10  1  0
  9 11  2  0
 10 12  1  0
 12 13  1  0
 13 14  2  0
 15 13  1  0
 14 16  1  0
 14 17  1  0
 18 15  2  0
 16 19  1  0
 16 20  2  0
 17 21  2  0
 21 18  1  0
  4 22  2  0
  4 23  1  0
 24 23  1  0
 24 25  1  0
 25 26  1  0
 25 27  1  0
 26 28  1  0
 27 29  1  0
 27 30  1  0
 30 28  1  0
 28 31  1  0
 30 32  1  0
 33 31  1  0
 34 31  1  0
 35 33  2  0
 33 36  1  0
 37 34  2  0
 38 35  1  0
 36 39  2  0
 36 37  1  0
 40 38  2  0
 40 39  1  0
 39 41  1  0
  6 42  1  6
  7 43  1  0
  7 44  1  0
  8 45  1  0
  8 46  1  0
 12 47  1  0
 12 48  1  0
 15 49  1  0
 17 50  1  0
 18 51  1  0
 21 52  1  0
 24 53  1  0
 24 54  1  0
 25 55  1  0
 27 56  1  0
 28 57  1  0
 29 58  1  0
 30 59  1  0
 32 60  1  0
 34 61  1  0
 38 62  1  0
 41 63  1  0
 41 64  1  0
M  CHG  3   5  -1  16   1  19  -1
M  END
>  <EmbedRMS>  (466) 
0.08946676701661774

$$$$

     RDKit          3D

 64 67  0  0  0  0  0  0  0  0999 V2000
   10.2826   43.7756   33.8082 C   0  0  0  0  0  0  0  0  0  0  0  0
   11.4084   43.5915   34.3580 O   0  0  0  0  0  0  0  0  0  0  0  0
    9.3662   42.7322   33.7021 O   0  0  0  0  0  0  0  0  0  0  0  0
    9.8859   41.2348   34.2841 P   0  0  0  0  0  5  0  0  0  0  0  0
   10.3673   41.4694   35.8744 O   0  0  0  0  0  1  0  0  0  0  0  0
    9.9542   45.1109   33.2424 C   0  0  2  0  0  0  0  0  0  0  0  0
   11.0723   46.0270   33.4847 N   0  0  0  0  0  0  0  0  0  0  0  0
    8.6384   45.6440   33.8480 C   0  0  0  0  0  0  0  0  0  0  0  0
    8.2379   46.9406   33.2173 C   0  0  0  0  0  0  0  0  0  0  0  0
    7.7982   46.9497   31.8892 O   0  0  0  0  0  0  0  0  0  0  0  0
    8.3356   48.0144   33.8720 O   0  0  0  0  0  0  0  0  0  0  0  0
    7.5627   48.1485   31.1539 C   0  0  0  0  0  0  0  0  0  0  0  0
    8.8620   48.8760   30.8902 C   0  0  0  0  0  0  0  0  0  0  0  0
    9.9760   48.2425   30.2720 C   0  0  0  0  0  0  0  0  0  0  0  0
    8.9830   50.2103   31.3202 C   0  0  0  0  0  0  0  0  0  0  0  0
    9.9198   46.8849   29.7955 N   0  0  0  0  0  4  0  0  0  0  0  0
   11.1805   48.9565   30.1394 C   0  0  0  0  0  0  0  0  0  0  0  0
   10.1830   50.9041   31.1627 C   0  0  0  0  0  0  0  0  0  0  0  0
   11.0645   46.1220   29.7587 O   0  0  0  0  0  1  0  0  0  0  0  0
    8.8842   46.4355   29.2640 O   0  0  0  0  0  0  0  0  0  0  0  0
   11.2809   50.2770   30.5785 C   0  0  0  0  0  0  0  0  0  0  0  0
    8.8085   40.1917   34.2087 O   0  0  0  0  0  0  0  0  0  0  0  0
   11.2371   40.7921   33.3667 O   0  0  0  0  0  0  0  0  0  0  0  0
   10.9133   40.6863   31.9943 C   0  0  0  0  0  0  0  0  0  0  0  0
   11.5169   39.3799   31.4409 C   0  0  0  0  0  0  0  0  0  0  0  0
   12.7486   39.0887   32.0764 O   0  0  0  0  0  0  0  0  0  0  0  0
   10.6051   38.1877   31.6659 C   0  0  0  0  0  0  0  0  0  0  0  0
   12.9411   37.6830   32.0278 C   0  0  0  0  0  0  0  0  0  0  0  0
    9.6358   38.0931   30.6502 O   0  0  0  0  0  0  0  0  0  0  0  0
   11.5827   37.0180   31.6936 C   0  0  0  0  0  0  0  0  0  0  0  0
   13.4909   37.2177   33.3239 N   0  0  0  0  0  0  0  0  0  0  0  0
   11.6141   36.3181   30.4675 O   0  0  0  0  0  0  0  0  0  0  0  0
   14.4762   36.3270   33.5733 C   0  0  0  0  0  0  0  0  0  0  0  0
   13.1179   37.6317   34.5689 C   0  0  0  0  0  0  0  0  0  0  0  0
   15.2067   35.6140   32.6743 N   0  0  0  0  0  0  0  0  0  0  0  0
   14.6731   36.2273   34.9186 C   0  0  0  0  0  0  0  0  0  0  0  0
   13.8223   37.0456   35.5785 N   0  0  0  0  0  0  0  0  0  0  0  0
   16.1639   34.7595   33.1550 C   0  0  0  0  0  0  0  0  0  0  0  0
   15.6515   35.3491   35.4134 C   0  0  0  0  0  0  0  0  0  0  0  0
   16.3792   34.6310   34.5045 N   0  0  0  0  0  0  0  0  0  0  0  0
   15.9002   35.1933   36.8092 N   0  0  0  0  0  0  0  0  0  0  0  0
    9.8248   44.9816   32.1449 H   0  0  0  0  0  0  0  0  0  0  0  0
   11.0733   46.3274   34.4874 H   0  0  0  0  0  0  0  0  0  0  0  0
   10.9434   46.8842   32.8995 H   0  0  0  0  0  0  0  0  0  0  0  0
    8.7460   45.7728   34.9479 H   0  0  0  0  0  0  0  0  0  0  0  0
    7.8206   44.9120   33.6726 H   0  0  0  0  0  0  0  0  0  0  0  0
    7.0777   47.8984   30.1882 H   0  0  0  0  0  0  0  0  0  0  0  0
    6.8412   48.7836   31.7136 H   0  0  0  0  0  0  0  0  0  0  0  0
    8.1493   50.7146   31.7933 H   0  0  0  0  0  0  0  0  0  0  0  0
   12.0437   48.4936   29.6784 H   0  0  0  0  0  0  0  0  0  0  0  0
   10.2637   51.9288   31.5022 H   0  0  0  0  0  0  0  0  0  0  0  0
   12.2122   50.8161   30.4622 H   0  0  0  0  0  0  0  0  0  0  0  0
   11.3847   41.5436   31.4678 H   0  0  0  0  0  0  0  0  0  0  0  0
    9.8231   40.7210   31.7583 H   0  0  0  0  0  0  0  0  0  0  0  0
   11.6994   39.5065   30.3488 H   0  0  0  0  0  0  0  0  0  0  0  0
   10.1120   38.2723   32.6632 H   0  0  0  0  0  0  0  0  0  0  0  0
   13.6816   37.4634   31.2269 H   0  0  0  0  0  0  0  0  0  0  0  0
    9.0036   37.3828   30.9349 H   0  0  0  0  0  0  0  0  0  0  0  0
   11.2846   36.3041   32.4929 H   0  0  0  0  0  0  0  0  0  0  0  0
   11.8849   36.9591   29.7589 H   0  0  0  0  0  0  0  0  0  0  0  0
   12.3363   38.3599   34.7441 H   0  0  0  0  0  0  0  0  0  0  0  0
   16.7574   34.1791   32.4623 H   0  0  0  0  0  0  0  0  0  0  0  0
   15.3529   35.7355   37.5141 H   0  0  0  0  0  0  0  0  0  0  0  0
   16.6363   34.5316   37.1417 H   0  0  0  0  0  0  0  0  0  0  0  0
  1  2  2  0
  1  3  1  0
  3  4  1  0
  4  5  1  0
  6  1  1  0
  7  6  1  0
  6  8  1  0
  8  9  1  0
  9 10  1  0
  9 11  2  0
 10 12  1  0
 12 13  1  0
 13 14  2  0
 15 13  1  0
 14 16  1  0
 14 17  1  0
 18 15  2  0
 16 19  1  0
 16 20  2  0
 17 21  2  0
 21 18  1  0
  4 22  2  0
  4 23  1  0
 24 23  1  0
 24 25  1  0
 25 26  1  0
 25 27  1  0
 26 28  1  0
 27 29  1  0
 27 30  1  0
 30 28  1  0
 28 31  1  0
 30 32  1  0
 33 31  1  0
 34 31  1  0
 35 33  2  0
 33 36  1  0
 37 34  2  0
 38 35  1  0
 36 39  2  0
 36 37  1  0
 40 38  2  0
 40 39  1  0
 39 41  1  0
  6 42  1  6
  7 43  1  0
  7 44  1  0
  8 45  1  0
  8 46  1  0
 12 47  1  0
 12 48  1  0
 15 49  1  0
 17 50  1  0
 18 51  1  0
 21 52  1  0
 24 53  1  0
 24 54  1  0
 25 55  1  0
 27 56  1  0
 28 57  1  0
 29 58  1  0
 30 59  1  0
 32 60  1  0
 34 61  1  0
 38 62  1  0
 41 63  1  0
 41 64  1  0
M  CHG  3   5  -1  16   1  19  -1
M  END
>  <EmbedRMS>  (467) 
0.08752513231722875

$$$$

     RDKit          3D

 64 67  0  0  0  0  0  0  0  0999 V2000
   10.2889   43.7680   33.8060 C   0  0  0  0  0  0  0  0  0  0  0  0
   11.4124   43.5787   34.3579 O   0  0  0  0  0  0  0  0  0  0  0  0
    9.3670   42.7302   33.7007 O   0  0  0  0  0  0  0  0  0  0  0  0
    9.8836   41.2331   34.2852 P   0  0  0  0  0  5  0  0  0  0  0  0
   10.3640   41.4694   35.8757 O   0  0  0  0  0  1  0  0  0  0  0  0
    9.9625   45.1126   33.2496 C   0  0  2  0  0  0  0  0  0  0  0  0
   11.0616   46.0541   33.4775 N   0  0  0  0  0  0  0  0  0  0  0  0
    8.6451   45.6676   33.8248 C   0  0  0  0  0  0  0  0  0  0  0  0
    8.6727   45.7910   35.3197 C   0  0  0  0  0  0  0  0  0  0  0  0
    8.4160   44.6619   36.1054 O   0  0  0  0  0  0  0  0  0  0  0  0
    8.9566   46.8980   35.8524 O   0  0  0  0  0  0  0  0  0  0  0  0
    8.4635   44.6653   37.5310 C   0  0  0  0  0  0  0  0  0  0  0  0
    7.3164   45.4645   38.1064 C   0  0  0  0  0  0  0  0  0  0  0  0
    7.4967   46.4539   39.1078 C   0  0  0  0  0  0  0  0  0  0  0  0
    6.0113   45.1347   37.6976 C   0  0  0  0  0  0  0  0  0  0  0  0
    8.8017   46.8397   39.5638 N   0  0  0  0  0  4  0  0  0  0  0  0
    6.3693   47.0757   39.6720 C   0  0  0  0  0  0  0  0  0  0  0  0
    4.9049   45.7755   38.2570 C   0  0  0  0  0  0  0  0  0  0  0  0
    9.7379   47.2918   38.6634 O   0  0  0  0  0  1  0  0  0  0  0  0
    9.0067   47.0123   40.7830 O   0  0  0  0  0  0  0  0  0  0  0  0
    5.0833   46.7422   39.2448 C   0  0  0  0  0  0  0  0  0  0  0  0
    8.8060   40.1905   34.2091 O   0  0  0  0  0  0  0  0  0  0  0  0
   11.2358   40.7893   33.3699 O   0  0  0  0  0  0  0  0  0  0  0  0
   10.9152   40.6896   31.9966 C   0  0  0  0  0  0  0  0  0  0  0  0
   11.5268   39.3899   31.4376 C   0  0  0  0  0  0  0  0  0  0  0  0
   12.7507   39.0917   32.0839 O   0  0  0  0  0  0  0  0  0  0  0  0
   10.6121   38.1915   31.6452 C   0  0  0  0  0  0  0  0  0  0  0  0
   12.9429   37.6853   32.0295 C   0  0  0  0  0  0  0  0  0  0  0  0
    9.6070   38.0858   30.6602 O   0  0  0  0  0  0  0  0  0  0  0  0
   11.5845   37.0186   31.6879 C   0  0  0  0  0  0  0  0  0  0  0  0
   13.4899   37.2163   33.3250 N   0  0  0  0  0  0  0  0  0  0  0  0
   11.6202   36.3063   30.4693 O   0  0  0  0  0  0  0  0  0  0  0  0
   14.4759   36.3263   33.5738 C   0  0  0  0  0  0  0  0  0  0  0  0
   13.1176   37.6307   34.5699 C   0  0  0  0  0  0  0  0  0  0  0  0
   15.2065   35.6139   32.6746 N   0  0  0  0  0  0  0  0  0  0  0  0
   14.6731   36.2267   34.9191 C   0  0  0  0  0  0  0  0  0  0  0  0
   13.8224   37.0450   35.5792 N   0  0  0  0  0  0  0  0  0  0  0  0
   16.1640   34.7596   33.1551 C   0  0  0  0  0  0  0  0  0  0  0  0
   15.6517   35.3489   35.4136 C   0  0  0  0  0  0  0  0  0  0  0  0
   16.3795   34.6310   34.5045 N   0  0  0  0  0  0  0  0  0  0  0  0
   15.9006   35.1931   36.8094 N   0  0  0  0  0  0  0  0  0  0  0  0
    9.8259   44.9970   32.1518 H   0  0  0  0  0  0  0  0  0  0  0  0
   11.9098   45.7248   32.9605 H   0  0  0  0  0  0  0  0  0  0  0  0
   11.2996   46.1008   34.4956 H   0  0  0  0  0  0  0  0  0  0  0  0
    8.4399   46.6632   33.3740 H   0  0  0  0  0  0  0  0  0  0  0  0
    7.8038   45.0006   33.5366 H   0  0  0  0  0  0  0  0  0  0  0  0
    8.3658   43.6174   37.8844 H   0  0  0  0  0  0  0  0  0  0  0  0
    9.4582   45.0165   37.8661 H   0  0  0  0  0  0  0  0  0  0  0  0
    5.8498   44.3684   36.9490 H   0  0  0  0  0  0  0  0  0  0  0  0
    6.4901   47.8333   40.4363 H   0  0  0  0  0  0  0  0  0  0  0  0
    3.9064   45.5137   37.9312 H   0  0  0  0  0  0  0  0  0  0  0  0
    4.2236   47.2339   39.6815 H   0  0  0  0  0  0  0  0  0  0  0  0
   11.3825   41.5527   31.4760 H   0  0  0  0  0  0  0  0  0  0  0  0
    9.8252   40.7191   31.7589 H   0  0  0  0  0  0  0  0  0  0  0  0
   11.7316   39.5342   30.3522 H   0  0  0  0  0  0  0  0  0  0  0  0
   10.1213   38.2680   32.6413 H   0  0  0  0  0  0  0  0  0  0  0  0
   13.6882   37.4709   31.2319 H   0  0  0  0  0  0  0  0  0  0  0  0
   10.0257   38.1751   29.7656 H   0  0  0  0  0  0  0  0  0  0  0  0
   11.2796   36.3123   32.4915 H   0  0  0  0  0  0  0  0  0  0  0  0
   11.9872   36.9100   29.7714 H   0  0  0  0  0  0  0  0  0  0  0  0
   12.3365   38.3596   34.7453 H   0  0  0  0  0  0  0  0  0  0  0  0
   16.7576   34.1794   32.4622 H   0  0  0  0  0  0  0  0  0  0  0  0
   15.3532   35.7351   37.5143 H   0  0  0  0  0  0  0  0  0  0  0  0
   16.6368   34.5316   37.1418 H   0  0  0  0  0  0  0  0  0  0  0  0
  1  2  2  0
  1  3  1  0
  3  4  1  0
  4  5  1  0
  6  1  1  0
  7  6  1  0
  6  8  1  0
  8  9  1  0
  9 10  1  0
  9 11  2  0
 10 12  1  0
 12 13  1  0
 13 14  2  0
 15 13  1  0
 14 16  1  0
 14 17  1  0
 18 15  2  0
 16 19  1  0
 16 20  2  0
 17 21  2  0
 21 18  1  0
  4 22  2  0
  4 23  1  0
 24 23  1  0
 24 25  1  0
 25 26  1  0
 25 27  1  0
 26 28  1  0
 27 29  1  0
 27 30  1  0
 30 28  1  0
 28 31  1  0
 30 32  1  0
 33 31  1  0
 34 31  1  0
 35 33  2  0
 33 36  1  0
 37 34  2  0
 38 35  1  0
 36 39  2  0
 36 37  1  0
 40 38  2  0
 40 39  1  0
 39 41  1  0
  6 42  1  6
  7 43  1  0
  7 44  1  0
  8 45  1  0
  8 46  1  0
 12 47  1  0
 12 48  1  0
 15 49  1  0
 17 50  1  0
 18 51  1  0
 21 52  1  0
 24 53  1  0
 24 54  1  0
 25 55  1  0
 27 56  1  0
 28 57  1  0
 29 58  1  0
 30 59  1  0
 32 60  1  0
 34 61  1  0
 38 62  1  0
 41 63  1  0
 41 64  1  0
M  CHG  3   5  -1  16   1  19  -1
M  END
>  <EmbedRMS>  (468) 
0.08765274456692154

$$$$

     RDKit          3D

 64 67  0  0  0  0  0  0  0  0999 V2000
   10.2808   43.7760   33.8099 C   0  0  0  0  0  0  0  0  0  0  0  0
   11.4069   43.5917   34.3593 O   0  0  0  0  0  0  0  0  0  0  0  0
    9.3680   42.7302   33.7003 O   0  0  0  0  0  0  0  0  0  0  0  0
    9.8863   41.2340   34.2847 P   0  0  0  0  0  5  0  0  0  0  0  0
   10.3665   41.4698   35.8751 O   0  0  0  0  0  1  0  0  0  0  0  0
    9.9528   45.1156   33.2442 C   0  0  2  0  0  0  0  0  0  0  0  0
   11.0743   46.0263   33.4818 N   0  0  0  0  0  0  0  0  0  0  0  0
    8.6532   45.6902   33.8505 C   0  0  0  0  0  0  0  0  0  0  0  0
    7.4417   44.9250   33.4116 C   0  0  0  0  0  0  0  0  0  0  0  0
    7.0974   44.8991   32.0543 O   0  0  0  0  0  0  0  0  0  0  0  0
    6.7441   44.3123   34.2657 O   0  0  0  0  0  0  0  0  0  0  0  0
    5.9939   44.1538   31.5378 C   0  0  0  0  0  0  0  0  0  0  0  0
    4.6884   44.9287   31.5591 C   0  0  0  0  0  0  0  0  0  0  0  0
    3.5415   44.4369   30.8733 C   0  0  0  0  0  0  0  0  0  0  0  0
    4.5977   46.1675   32.2303 C   0  0  0  0  0  0  0  0  0  0  0  0
    3.5524   43.1829   30.1649 N   0  0  0  0  0  4  0  0  0  0  0  0
    2.3636   45.2049   30.8622 C   0  0  0  0  0  0  0  0  0  0  0  0
    3.4125   46.9033   32.2176 C   0  0  0  0  0  0  0  0  0  0  0  0
    2.7500   43.0128   29.0599 O   0  0  0  0  0  1  0  0  0  0  0  0
    4.1468   42.1896   30.6306 O   0  0  0  0  0  0  0  0  0  0  0  0
    2.2993   46.4251   31.5330 C   0  0  0  0  0  0  0  0  0  0  0  0
    8.8085   40.1913   34.2087 O   0  0  0  0  0  0  0  0  0  0  0  0
   11.2377   40.7906   33.3687 O   0  0  0  0  0  0  0  0  0  0  0  0
   10.9154   40.6898   31.9958 C   0  0  0  0  0  0  0  0  0  0  0  0
   11.5269   39.3898   31.4373 C   0  0  0  0  0  0  0  0  0  0  0  0
   12.7507   39.0916   32.0837 O   0  0  0  0  0  0  0  0  0  0  0  0
   10.6121   38.1916   31.6452 C   0  0  0  0  0  0  0  0  0  0  0  0
   12.9428   37.6853   32.0295 C   0  0  0  0  0  0  0  0  0  0  0  0
    9.6069   38.0858   30.6603 O   0  0  0  0  0  0  0  0  0  0  0  0
   11.5844   37.0186   31.6879 C   0  0  0  0  0  0  0  0  0  0  0  0
   13.4898   37.2163   33.3250 N   0  0  0  0  0  0  0  0  0  0  0  0
   11.6200   36.3062   30.4693 O   0  0  0  0  0  0  0  0  0  0  0  0
   14.4758   36.3263   33.5738 C   0  0  0  0  0  0  0  0  0  0  0  0
   13.1175   37.6308   34.5699 C   0  0  0  0  0  0  0  0  0  0  0  0
   15.2065   35.6139   32.6746 N   0  0  0  0  0  0  0  0  0  0  0  0
   14.6731   36.2267   34.9190 C   0  0  0  0  0  0  0  0  0  0  0  0
   13.8224   37.0450   35.5792 N   0  0  0  0  0  0  0  0  0  0  0  0
   16.1640   34.7596   33.1551 C   0  0  0  0  0  0  0  0  0  0  0  0
   15.6517   35.3489   35.4136 C   0  0  0  0  0  0  0  0  0  0  0  0
   16.3795   34.6310   34.5045 N   0  0  0  0  0  0  0  0  0  0  0  0
   15.9006   35.1931   36.8094 N   0  0  0  0  0  0  0  0  0  0  0  0
    9.8263   44.9989   32.1448 H   0  0  0  0  0  0  0  0  0  0  0  0
   11.1098   46.2833   34.4961 H   0  0  0  0  0  0  0  0  0  0  0  0
   10.9078   46.9085   32.9447 H   0  0  0  0  0  0  0  0  0  0  0  0
    8.5254   46.7431   33.5191 H   0  0  0  0  0  0  0  0  0  0  0  0
    8.7208   45.6943   34.9612 H   0  0  0  0  0  0  0  0  0  0  0  0
    5.8851   43.2048   32.1054 H   0  0  0  0  0  0  0  0  0  0  0  0
    6.2312   43.8953   30.4843 H   0  0  0  0  0  0  0  0  0  0  0  0
    5.4420   46.5869   32.7581 H   0  0  0  0  0  0  0  0  0  0  0  0
    1.4828   44.8488   30.3430 H   0  0  0  0  0  0  0  0  0  0  0  0
    3.3602   47.8526   32.7354 H   0  0  0  0  0  0  0  0  0  0  0  0
    1.3829   47.0010   31.5220 H   0  0  0  0  0  0  0  0  0  0  0  0
    9.8252   40.7191   31.7591 H   0  0  0  0  0  0  0  0  0  0  0  0
   11.3820   41.5526   31.4741 H   0  0  0  0  0  0  0  0  0  0  0  0
   11.7317   39.5338   30.3519 H   0  0  0  0  0  0  0  0  0  0  0  0
   10.1214   38.2683   32.6412 H   0  0  0  0  0  0  0  0  0  0  0  0
   13.6881   37.4707   31.2318 H   0  0  0  0  0  0  0  0  0  0  0  0
   10.0255   38.1752   29.7656 H   0  0  0  0  0  0  0  0  0  0  0  0
   11.2794   36.3124   32.4916 H   0  0  0  0  0  0  0  0  0  0  0  0
   11.9870   36.9099   29.7714 H   0  0  0  0  0  0  0  0  0  0  0  0
   12.3365   38.3596   34.7453 H   0  0  0  0  0  0  0  0  0  0  0  0
   16.7577   34.1794   32.4622 H   0  0  0  0  0  0  0  0  0  0  0  0
   15.3532   35.7351   37.5143 H   0  0  0  0  0  0  0  0  0  0  0  0
   16.6368   34.5316   37.1418 H   0  0  0  0  0  0  0  0  0  0  0  0
  1  2  2  0
  1  3  1  0
  3  4  1  0
  4  5  1  0
  6  1  1  0
  7  6  1  0
  6  8  1  0
  8  9  1  0
  9 10  1  0
  9 11  2  0
 10 12  1  0
 12 13  1  0
 13 14  2  0
 15 13  1  0
 14 16  1  0
 14 17  1  0
 18 15  2  0
 16 19  1  0
 16 20  2  0
 17 21  2  0
 21 18  1  0
  4 22  2  0
  4 23  1  0
 24 23  1  0
 24 25  1  0
 25 26  1  0
 25 27  1  0
 26 28  1  0
 27 29  1  0
 27 30  1  0
 30 28  1  0
 28 31  1  0
 30 32  1  0
 33 31  1  0
 34 31  1  0
 35 33  2  0
 33 36  1  0
 37 34  2  0
 38 35  1  0
 36 39  2  0
 36 37  1  0
 40 38  2  0
 40 39  1  0
 39 41  1  0
  6 42  1  6
  7 43  1  0
  7 44  1  0
  8 45  1  0
  8 46  1  0
 12 47  1  0
 12 48  1  0
 15 49  1  0
 17 50  1  0
 18 51  1  0
 21 52  1  0
 24 53  1  0
 24 54  1  0
 25 55  1  0
 27 56  1  0
 28 57  1  0
 29 58  1  0
 30 59  1  0
 32 60  1  0
 34 61  1  0
 38 62  1  0
 41 63  1  0
 41 64  1  0
M  CHG  3   5  -1  16   1  19  -1
M  END
>  <EmbedRMS>  (469) 
0.08693135404567012

$$$$

     RDKit          3D

 64 67  0  0  0  0  0  0  0  0999 V2000
   10.2827   43.7756   33.8076 C   0  0  0  0  0  0  0  0  0  0  0  0
   11.4085   43.5915   34.3576 O   0  0  0  0  0  0  0  0  0  0  0  0
    9.3664   42.7321   33.7016 O   0  0  0  0  0  0  0  0  0  0  0  0
    9.8857   41.2349   34.2847 P   0  0  0  0  0  5  0  0  0  0  0  0
   10.3666   41.4698   35.8750 O   0  0  0  0  0  1  0  0  0  0  0  0
    9.9533   45.1118   33.2434 C   0  0  2  0  0  0  0  0  0  0  0  0
   11.0726   46.0267   33.4850 N   0  0  0  0  0  0  0  0  0  0  0  0
    8.6397   45.6439   33.8544 C   0  0  0  0  0  0  0  0  0  0  0  0
    8.2259   46.9369   33.2240 C   0  0  0  0  0  0  0  0  0  0  0  0
    8.5965   48.1430   33.8245 O   0  0  0  0  0  0  0  0  0  0  0  0
    7.5819   46.9283   32.1393 O   0  0  0  0  0  0  0  0  0  0  0  0
    8.2724   49.4136   33.2659 C   0  0  0  0  0  0  0  0  0  0  0  0
    8.7970   50.5352   34.1335 C   0  0  0  0  0  0  0  0  0  0  0  0
    9.1421   51.7986   33.5840 C   0  0  0  0  0  0  0  0  0  0  0  0
    8.9211   50.3381   35.5234 C   0  0  0  0  0  0  0  0  0  0  0  0
    8.9383   52.0972   32.1918 N   0  0  0  0  0  4  0  0  0  0  0  0
    9.6809   52.7899   34.4243 C   0  0  0  0  0  0  0  0  0  0  0  0
    9.4401   51.3418   36.3424 C   0  0  0  0  0  0  0  0  0  0  0  0
    7.7810   51.7059   31.5589 O   0  0  0  0  0  1  0  0  0  0  0  0
    9.7152   52.8731   31.5975 O   0  0  0  0  0  0  0  0  0  0  0  0
    9.8303   52.5607   35.7923 C   0  0  0  0  0  0  0  0  0  0  0  0
    8.8085   40.1917   34.2089 O   0  0  0  0  0  0  0  0  0  0  0  0
   11.2373   40.7914   33.3686 O   0  0  0  0  0  0  0  0  0  0  0  0
   10.9153   40.6899   31.9958 C   0  0  0  0  0  0  0  0  0  0  0  0
   11.5269   39.3898   31.4374 C   0  0  0  0  0  0  0  0  0  0  0  0
   12.7507   39.0917   32.0840 O   0  0  0  0  0  0  0  0  0  0  0  0
   10.6121   38.1916   31.6452 C   0  0  0  0  0  0  0  0  0  0  0  0
   12.9429   37.6853   32.0295 C   0  0  0  0  0  0  0  0  0  0  0  0
    9.6069   38.0858   30.6603 O   0  0  0  0  0  0  0  0  0  0  0  0
   11.5845   37.0186   31.6879 C   0  0  0  0  0  0  0  0  0  0  0  0
   13.4899   37.2163   33.3250 N   0  0  0  0  0  0  0  0  0  0  0  0
   11.6201   36.3063   30.4693 O   0  0  0  0  0  0  0  0  0  0  0  0
   14.4759   36.3263   33.5738 C   0  0  0  0  0  0  0  0  0  0  0  0
   13.1176   37.6307   34.5699 C   0  0  0  0  0  0  0  0  0  0  0  0
   15.2065   35.6139   32.6746 N   0  0  0  0  0  0  0  0  0  0  0  0
   14.6731   36.2267   34.9191 C   0  0  0  0  0  0  0  0  0  0  0  0
   13.8224   37.0450   35.5792 N   0  0  0  0  0  0  0  0  0  0  0  0
   16.1640   34.7596   33.1551 C   0  0  0  0  0  0  0  0  0  0  0  0
   15.6517   35.3489   35.4136 C   0  0  0  0  0  0  0  0  0  0  0  0
   16.3795   34.6310   34.5046 N   0  0  0  0  0  0  0  0  0  0  0  0
   15.9006   35.1931   36.8094 N   0  0  0  0  0  0  0  0  0  0  0  0
    9.8203   44.9856   32.1457 H   0  0  0  0  0  0  0  0  0  0  0  0
   11.0747   46.3287   34.4872 H   0  0  0  0  0  0  0  0  0  0  0  0
   10.9456   46.8828   32.8979 H   0  0  0  0  0  0  0  0  0  0  0  0
    8.7577   45.7900   34.9505 H   0  0  0  0  0  0  0  0  0  0  0  0
    7.8247   44.9025   33.7019 H   0  0  0  0  0  0  0  0  0  0  0  0
    7.1690   49.5116   33.1785 H   0  0  0  0  0  0  0  0  0  0  0  0
    8.7284   49.4686   32.2542 H   0  0  0  0  0  0  0  0  0  0  0  0
    8.6260   49.4013   35.9791 H   0  0  0  0  0  0  0  0  0  0  0  0
    9.9609   53.7554   34.0221 H   0  0  0  0  0  0  0  0  0  0  0  0
    9.5421   51.1724   37.4066 H   0  0  0  0  0  0  0  0  0  0  0  0
   10.2351   53.3363   36.4297 H   0  0  0  0  0  0  0  0  0  0  0  0
    9.8251   40.7188   31.7590 H   0  0  0  0  0  0  0  0  0  0  0  0
   11.3817   41.5526   31.4737 H   0  0  0  0  0  0  0  0  0  0  0  0
   11.7318   39.5337   30.3520 H   0  0  0  0  0  0  0  0  0  0  0  0
   10.1214   38.2682   32.6413 H   0  0  0  0  0  0  0  0  0  0  0  0
   13.6882   37.4709   31.2319 H   0  0  0  0  0  0  0  0  0  0  0  0
   10.0256   38.1750   29.7656 H   0  0  0  0  0  0  0  0  0  0  0  0
   11.2795   36.3123   32.4915 H   0  0  0  0  0  0  0  0  0  0  0  0
   11.9872   36.9099   29.7715 H   0  0  0  0  0  0  0  0  0  0  0  0
   12.3365   38.3595   34.7453 H   0  0  0  0  0  0  0  0  0  0  0  0
   16.7576   34.1794   32.4622 H   0  0  0  0  0  0  0  0  0  0  0  0
   15.3532   35.7351   37.5143 H   0  0  0  0  0  0  0  0  0  0  0  0
   16.6368   34.5315   37.1418 H   0  0  0  0  0  0  0  0  0  0  0  0
  1  2  2  0
  1  3  1  0
  3  4  1  0
  4  5  1  0
  6  1  1  0
  7  6  1  0
  6  8  1  0
  8  9  1  0
  9 10  1  0
  9 11  2  0
 10 12  1  0
 12 13  1  0
 13 14  2  0
 15 13  1  0
 14 16  1  0
 14 17  1  0
 18 15  2  0
 16 19  1  0
 16 20  2  0
 17 21  2  0
 21 18  1  0
  4 22  2  0
  4 23  1  0
 24 23  1  0
 24 25  1  0
 25 26  1  0
 25 27  1  0
 26 28  1  0
 27 29  1  0
 27 30  1  0
 30 28  1  0
 28 31  1  0
 30 32  1  0
 33 31  1  0
 34 31  1  0
 35 33  2  0
 33 36  1  0
 37 34  2  0
 38 35  1  0
 36 39  2  0
 36 37  1  0
 40 38  2  0
 40 39  1  0
 39 41  1  0
  6 42  1  6
  7 43  1  0
  7 44  1  0
  8 45  1  0
  8 46  1  0
 12 47  1  0
 12 48  1  0
 15 49  1  0
 17 50  1  0
 18 51  1  0
 21 52  1  0
 24 53  1  0
 24 54  1  0
 25 55  1  0
 27 56  1  0
 28 57  1  0
 29 58  1  0
 30 59  1  0
 32 60  1  0
 34 61  1  0
 38 62  1  0
 41 63  1  0
 41 64  1  0
M  CHG  3   5  -1  16   1  19  -1
M  END
>  <EmbedRMS>  (470) 
0.08670309644911604

$$$$

     RDKit          3D

 64 67  0  0  0  0  0  0  0  0999 V2000
   10.2851   43.7723   33.8062 C   0  0  0  0  0  0  0  0  0  0  0  0
   11.4105   43.5852   34.3540 O   0  0  0  0  0  0  0  0  0  0  0  0
    9.3664   42.7314   33.7016 O   0  0  0  0  0  0  0  0  0  0  0  0
    9.8850   41.2342   34.2847 P   0  0  0  0  0  5  0  0  0  0  0  0
   10.3659   41.4697   35.8750 O   0  0  0  0  0  1  0  0  0  0  0  0
    9.9588   45.1114   33.2436 C   0  0  2  0  0  0  0  0  0  0  0  0
   11.0667   46.0375   33.4860 N   0  0  0  0  0  0  0  0  0  0  0  0
    8.6418   45.6615   33.8306 C   0  0  0  0  0  0  0  0  0  0  0  0
    8.7556   46.0711   35.2721 C   0  0  0  0  0  0  0  0  0  0  0  0
    9.2347   45.1631   36.2246 O   0  0  0  0  0  0  0  0  0  0  0  0
    8.3782   47.2235   35.6196 O   0  0  0  0  0  0  0  0  0  0  0  0
    9.2785   45.4483   37.6223 C   0  0  0  0  0  0  0  0  0  0  0  0
   10.2832   46.5379   37.9249 C   0  0  0  0  0  0  0  0  0  0  0  0
   11.6510   46.4358   37.5529 C   0  0  0  0  0  0  0  0  0  0  0  0
    9.8284   47.7145   38.5494 C   0  0  0  0  0  0  0  0  0  0  0  0
   12.1850   45.2524   36.9324 N   0  0  0  0  0  4  0  0  0  0  0  0
   12.5078   47.5271   37.7901 C   0  0  0  0  0  0  0  0  0  0  0  0
   10.6992   48.7778   38.7889 C   0  0  0  0  0  0  0  0  0  0  0  0
   11.7975   44.0029   37.3562 O   0  0  0  0  0  1  0  0  0  0  0  0
   13.1409   45.3431   36.1343 O   0  0  0  0  0  0  0  0  0  0  0  0
   12.0350   48.6863   38.4055 C   0  0  0  0  0  0  0  0  0  0  0  0
    8.8076   40.1913   34.2091 O   0  0  0  0  0  0  0  0  0  0  0  0
   11.2367   40.7903   33.3684 O   0  0  0  0  0  0  0  0  0  0  0  0
   10.9150   40.6883   31.9953 C   0  0  0  0  0  0  0  0  0  0  0  0
   11.5259   39.3873   31.4367 C   0  0  0  0  0  0  0  0  0  0  0  0
   12.7490   39.0894   32.0821 O   0  0  0  0  0  0  0  0  0  0  0  0
   10.6122   38.1894   31.6462 C   0  0  0  0  0  0  0  0  0  0  0  0
   12.9373   37.6828   32.0302 C   0  0  0  0  0  0  0  0  0  0  0  0
    9.6150   38.0839   30.6538 O   0  0  0  0  0  0  0  0  0  0  0  0
   11.5793   37.0137   31.7014 C   0  0  0  0  0  0  0  0  0  0  0  0
   13.4906   37.2170   33.3243 N   0  0  0  0  0  0  0  0  0  0  0  0
   11.6217   36.3253   30.4725 O   0  0  0  0  0  0  0  0  0  0  0  0
   14.4763   36.3267   33.5731 C   0  0  0  0  0  0  0  0  0  0  0  0
   13.1182   37.6309   34.5694 C   0  0  0  0  0  0  0  0  0  0  0  0
   15.2065   35.6137   32.6740 N   0  0  0  0  0  0  0  0  0  0  0  0
   14.6735   36.2270   34.9185 C   0  0  0  0  0  0  0  0  0  0  0  0
   13.8229   37.0451   35.5788 N   0  0  0  0  0  0  0  0  0  0  0  0
   16.1639   34.7593   33.1547 C   0  0  0  0  0  0  0  0  0  0  0  0
   15.6518   35.3489   35.4132 C   0  0  0  0  0  0  0  0  0  0  0  0
   16.3794   34.6308   34.5042 N   0  0  0  0  0  0  0  0  0  0  0  0
   15.9006   35.1931   36.8090 N   0  0  0  0  0  0  0  0  0  0  0  0
    9.8210   44.9890   32.1455 H   0  0  0  0  0  0  0  0  0  0  0  0
   10.8050   46.9739   33.0998 H   0  0  0  0  0  0  0  0  0  0  0  0
   11.8914   45.7222   32.9238 H   0  0  0  0  0  0  0  0  0  0  0  0
    7.8337   44.9046   33.7355 H   0  0  0  0  0  0  0  0  0  0  0  0
    8.3279   46.5408   33.2260 H   0  0  0  0  0  0  0  0  0  0  0  0
    8.2580   45.7282   37.9646 H   0  0  0  0  0  0  0  0  0  0  0  0
    9.5458   44.5280   38.1791 H   0  0  0  0  0  0  0  0  0  0  0  0
    8.7905   47.8178   38.8413 H   0  0  0  0  0  0  0  0  0  0  0  0
   13.5528   47.4734   37.5119 H   0  0  0  0  0  0  0  0  0  0  0  0
   10.3347   49.6783   39.2664 H   0  0  0  0  0  0  0  0  0  0  0  0
   12.7076   49.5144   38.5885 H   0  0  0  0  0  0  0  0  0  0  0  0
    9.8248   40.7180   31.7586 H   0  0  0  0  0  0  0  0  0  0  0  0
   11.3821   41.5506   31.4731 H   0  0  0  0  0  0  0  0  0  0  0  0
   11.7289   39.5290   30.3507 H   0  0  0  0  0  0  0  0  0  0  0  0
   10.1138   38.2718   32.6380 H   0  0  0  0  0  0  0  0  0  0  0  0
   13.6725   37.4639   31.2240 H   0  0  0  0  0  0  0  0  0  0  0  0
   10.0536   38.1087   29.7639 H   0  0  0  0  0  0  0  0  0  0  0  0
   11.2646   36.3135   32.5107 H   0  0  0  0  0  0  0  0  0  0  0  0
   12.1550   35.5034   30.6316 H   0  0  0  0  0  0  0  0  0  0  0  0
   12.3362   38.3587   34.7451 H   0  0  0  0  0  0  0  0  0  0  0  0
   16.7573   34.1788   32.4619 H   0  0  0  0  0  0  0  0  0  0  0  0
   16.6366   34.5314   37.1415 H   0  0  0  0  0  0  0  0  0  0  0  0
   15.3533   35.7353   37.5139 H   0  0  0  0  0  0  0  0  0  0  0  0
  1  2  2  0
  1  3  1  0
  3  4  1  0
  4  5  1  0
  6  1  1  0
  7  6  1  0
  6  8  1  0
  8  9  1  0
  9 10  1  0
  9 11  2  0
 10 12  1  0
 12 13  1  0
 13 14  2  0
 15 13  1  0
 14 16  1  0
 14 17  1  0
 18 15  2  0
 16 19  1  0
 16 20  2  0
 17 21  2  0
 21 18  1  0
  4 22  2  0
  4 23  1  0
 24 23  1  0
 24 25  1  0
 25 26  1  0
 25 27  1  0
 26 28  1  0
 27 29  1  0
 27 30  1  0
 30 28  1  0
 28 31  1  0
 30 32  1  0
 33 31  1  0
 34 31  1  0
 35 33  2  0
 33 36  1  0
 37 34  2  0
 38 35  1  0
 36 39  2  0
 36 37  1  0
 40 38  2  0
 40 39  1  0
 39 41  1  0
  6 42  1  6
  7 43  1  0
  7 44  1  0
  8 45  1  0
  8 46  1  0
 12 47  1  0
 12 48  1  0
 15 49  1  0
 17 50  1  0
 18 51  1  0
 21 52  1  0
 24 53  1  0
 24 54  1  0
 25 55  1  0
 27 56  1  0
 28 57  1  0
 29 58  1  0
 30 59  1  0
 32 60  1  0
 34 61  1  0
 38 62  1  0
 41 63  1  0
 41 64  1  0
M  CHG  3   5  -1  16   1  19  -1
M  END
>  <EmbedRMS>  (471) 
0.08781205640288882

$$$$

     RDKit          3D

 64 67  0  0  0  0  0  0  0  0999 V2000
   10.2797   43.7759   33.8112 C   0  0  0  0  0  0  0  0  0  0  0  0
   11.4031   43.5917   34.3662 O   0  0  0  0  0  0  0  0  0  0  0  0
    9.3675   42.7298   33.6988 O   0  0  0  0  0  0  0  0  0  0  0  0
    9.8870   41.2334   34.2829 P   0  0  0  0  0  5  0  0  0  0  0  0
   10.3660   41.4691   35.8739 O   0  0  0  0  0  1  0  0  0  0  0  0
    9.9467   45.1218   33.2587 C   0  0  2  0  0  0  0  0  0  0  0  0
   11.0822   46.0224   33.4654 N   0  0  0  0  0  0  0  0  0  0  0  0
    8.6968   45.7108   33.9488 C   0  0  0  0  0  0  0  0  0  0  0  0
    7.4383   44.9535   33.6419 C   0  0  0  0  0  0  0  0  0  0  0  0
    6.5632   44.6347   34.6839 O   0  0  0  0  0  0  0  0  0  0  0  0
    7.1510   44.6586   32.4492 O   0  0  0  0  0  0  0  0  0  0  0  0
    5.3448   43.9259   34.4789 C   0  0  0  0  0  0  0  0  0  0  0  0
    4.5892   43.8210   35.7812 C   0  0  0  0  0  0  0  0  0  0  0  0
    5.1801   43.2846   36.9569 C   0  0  0  0  0  0  0  0  0  0  0  0
    3.2695   44.3072   35.8379 C   0  0  0  0  0  0  0  0  0  0  0  0
    6.5151   42.7486   36.9574 N   0  0  0  0  0  4  0  0  0  0  0  0
    4.4439   43.2853   38.1559 C   0  0  0  0  0  0  0  0  0  0  0  0
    2.5514   44.2831   37.0342 C   0  0  0  0  0  0  0  0  0  0  0  0
    6.9552   41.9693   35.9140 O   0  0  0  0  0  1  0  0  0  0  0  0
    7.2267   42.8404   37.9791 O   0  0  0  0  0  0  0  0  0  0  0  0
    3.1391   43.7781   38.1919 C   0  0  0  0  0  0  0  0  0  0  0  0
    8.8104   40.1896   34.2064 O   0  0  0  0  0  0  0  0  0  0  0  0
   11.2387   40.7909   33.3670 O   0  0  0  0  0  0  0  0  0  0  0  0
   10.9160   40.6884   31.9942 C   0  0  0  0  0  0  0  0  0  0  0  0
   11.5263   39.3870   31.4362 C   0  0  0  0  0  0  0  0  0  0  0  0
   12.7493   39.0892   32.0817 O   0  0  0  0  0  0  0  0  0  0  0  0
   10.6123   38.1894   31.6461 C   0  0  0  0  0  0  0  0  0  0  0  0
   12.9373   37.6826   32.0301 C   0  0  0  0  0  0  0  0  0  0  0  0
    9.6150   38.0839   30.6539 O   0  0  0  0  0  0  0  0  0  0  0  0
   11.5792   37.0136   31.7014 C   0  0  0  0  0  0  0  0  0  0  0  0
   13.4906   37.2169   33.3242 N   0  0  0  0  0  0  0  0  0  0  0  0
   11.6215   36.3252   30.4726 O   0  0  0  0  0  0  0  0  0  0  0  0
   14.4763   36.3266   33.5731 C   0  0  0  0  0  0  0  0  0  0  0  0
   13.1181   37.6308   34.5694 C   0  0  0  0  0  0  0  0  0  0  0  0
   15.2065   35.6137   32.6740 N   0  0  0  0  0  0  0  0  0  0  0  0
   14.6735   36.2270   34.9185 C   0  0  0  0  0  0  0  0  0  0  0  0
   13.8228   37.0451   35.5787 N   0  0  0  0  0  0  0  0  0  0  0  0
   16.1639   34.7593   33.1547 C   0  0  0  0  0  0  0  0  0  0  0  0
   15.6519   35.3489   35.4132 C   0  0  0  0  0  0  0  0  0  0  0  0
   16.3794   34.6308   34.5042 N   0  0  0  0  0  0  0  0  0  0  0  0
   15.9006   35.1931   36.8090 N   0  0  0  0  0  0  0  0  0  0  0  0
    9.7577   45.0222   32.1658 H   0  0  0  0  0  0  0  0  0  0  0  0
   11.8863   45.6782   32.8902 H   0  0  0  0  0  0  0  0  0  0  0  0
   10.8415   46.9593   33.0670 H   0  0  0  0  0  0  0  0  0  0  0  0
    8.8557   45.7349   35.0495 H   0  0  0  0  0  0  0  0  0  0  0  0
    8.5451   46.7586   33.6113 H   0  0  0  0  0  0  0  0  0  0  0  0
    4.7407   44.4635   33.7151 H   0  0  0  0  0  0  0  0  0  0  0  0
    5.5529   42.9109   34.0799 H   0  0  0  0  0  0  0  0  0  0  0  0
    2.7942   44.7176   34.9554 H   0  0  0  0  0  0  0  0  0  0  0  0
    4.8769   42.8853   39.0642 H   0  0  0  0  0  0  0  0  0  0  0  0
    1.5384   44.6634   37.0645 H   0  0  0  0  0  0  0  0  0  0  0  0
    2.5812   43.7645   39.1194 H   0  0  0  0  0  0  0  0  0  0  0  0
    9.8257   40.7184   31.7576 H   0  0  0  0  0  0  0  0  0  0  0  0
   11.3831   41.5502   31.4713 H   0  0  0  0  0  0  0  0  0  0  0  0
   11.7294   39.5283   30.3501 H   0  0  0  0  0  0  0  0  0  0  0  0
   10.1141   38.2722   32.6380 H   0  0  0  0  0  0  0  0  0  0  0  0
   13.6725   37.4633   31.2240 H   0  0  0  0  0  0  0  0  0  0  0  0
   10.0534   38.1085   29.7639 H   0  0  0  0  0  0  0  0  0  0  0  0
   11.2645   36.3135   32.5108 H   0  0  0  0  0  0  0  0  0  0  0  0
   12.1547   35.5031   30.6317 H   0  0  0  0  0  0  0  0  0  0  0  0
   12.3361   38.3586   34.7450 H   0  0  0  0  0  0  0  0  0  0  0  0
   16.7573   34.1788   32.4619 H   0  0  0  0  0  0  0  0  0  0  0  0
   16.6366   34.5314   37.1415 H   0  0  0  0  0  0  0  0  0  0  0  0
   15.3533   35.7353   37.5139 H   0  0  0  0  0  0  0  0  0  0  0  0
  1  2  2  0
  1  3  1  0
  3  4  1  0
  4  5  1  0
  6  1  1  0
  7  6  1  0
  6  8  1  0
  8  9  1  0
  9 10  1  0
  9 11  2  0
 10 12  1  0
 12 13  1  0
 13 14  2  0
 15 13  1  0
 14 16  1  0
 14 17  1  0
 18 15  2  0
 16 19  1  0
 16 20  2  0
 17 21  2  0
 21 18  1  0
  4 22  2  0
  4 23  1  0
 24 23  1  0
 24 25  1  0
 25 26  1  0
 25 27  1  0
 26 28  1  0
 27 29  1  0
 27 30  1  0
 30 28  1  0
 28 31  1  0
 30 32  1  0
 33 31  1  0
 34 31  1  0
 35 33  2  0
 33 36  1  0
 37 34  2  0
 38 35  1  0
 36 39  2  0
 36 37  1  0
 40 38  2  0
 40 39  1  0
 39 41  1  0
  6 42  1  6
  7 43  1  0
  7 44  1  0
  8 45  1  0
  8 46  1  0
 12 47  1  0
 12 48  1  0
 15 49  1  0
 17 50  1  0
 18 51  1  0
 21 52  1  0
 24 53  1  0
 24 54  1  0
 25 55  1  0
 27 56  1  0
 28 57  1  0
 29 58  1  0
 30 59  1  0
 32 60  1  0
 34 61  1  0
 38 62  1  0
 41 63  1  0
 41 64  1  0
M  CHG  3   5  -1  16   1  19  -1
M  END
>  <EmbedRMS>  (472) 
0.0881782507096486

$$$$

     RDKit          3D

 64 67  0  0  0  0  0  0  0  0999 V2000
   10.2848   43.7740   33.8066 C   0  0  0  0  0  0  0  0  0  0  0  0
   11.4069   43.5898   34.3639 O   0  0  0  0  0  0  0  0  0  0  0  0
    9.3680   42.7311   33.6987 O   0  0  0  0  0  0  0  0  0  0  0  0
    9.8858   41.2341   34.2835 P   0  0  0  0  0  5  0  0  0  0  0  0
   10.3662   41.4696   35.8740 O   0  0  0  0  0  1  0  0  0  0  0  0
    9.9494   45.1166   33.2553 C   0  0  2  0  0  0  0  0  0  0  0  0
   11.0750   46.0286   33.4727 N   0  0  0  0  0  0  0  0  0  0  0  0
    8.6771   45.6511   33.9474 C   0  0  0  0  0  0  0  0  0  0  0  0
    8.1811   46.9383   33.3562 C   0  0  0  0  0  0  0  0  0  0  0  0
    7.7080   47.9438   34.2096 O   0  0  0  0  0  0  0  0  0  0  0  0
    8.1329   47.0828   32.1035 O   0  0  0  0  0  0  0  0  0  0  0  0
    7.1520   49.1759   33.7453 C   0  0  0  0  0  0  0  0  0  0  0  0
    8.1881   50.2733   33.5880 C   0  0  0  0  0  0  0  0  0  0  0  0
    7.7894   51.6204   33.3638 C   0  0  0  0  0  0  0  0  0  0  0  0
    9.5644   49.9831   33.7004 C   0  0  0  0  0  0  0  0  0  0  0  0
    6.4033   51.9932   33.2472 N   0  0  0  0  0  4  0  0  0  0  0  0
    8.7713   52.6245   33.2763 C   0  0  0  0  0  0  0  0  0  0  0  0
   10.5206   50.9935   33.5952 C   0  0  0  0  0  0  0  0  0  0  0  0
    5.5230   51.2156   32.5319 O   0  0  0  0  0  1  0  0  0  0  0  0
    6.0213   53.1109   33.6520 O   0  0  0  0  0  0  0  0  0  0  0  0
   10.1252   52.3113   33.3855 C   0  0  0  0  0  0  0  0  0  0  0  0
    8.8081   40.1914   34.2081 O   0  0  0  0  0  0  0  0  0  0  0  0
   11.2374   40.7898   33.3677 O   0  0  0  0  0  0  0  0  0  0  0  0
   10.9156   40.6881   31.9947 C   0  0  0  0  0  0  0  0  0  0  0  0
   11.5262   39.3870   31.4363 C   0  0  0  0  0  0  0  0  0  0  0  0
   12.7492   39.0892   32.0818 O   0  0  0  0  0  0  0  0  0  0  0  0
   10.6123   38.1893   31.6461 C   0  0  0  0  0  0  0  0  0  0  0  0
   12.9374   37.6826   32.0301 C   0  0  0  0  0  0  0  0  0  0  0  0
    9.6150   38.0838   30.6538 O   0  0  0  0  0  0  0  0  0  0  0  0
   11.5793   37.0136   31.7014 C   0  0  0  0  0  0  0  0  0  0  0  0
   13.4907   37.2169   33.3242 N   0  0  0  0  0  0  0  0  0  0  0  0
   11.6216   36.3252   30.4725 O   0  0  0  0  0  0  0  0  0  0  0  0
   14.4763   36.3266   33.5731 C   0  0  0  0  0  0  0  0  0  0  0  0
   13.1182   37.6308   34.5694 C   0  0  0  0  0  0  0  0  0  0  0  0
   15.2065   35.6137   32.6740 N   0  0  0  0  0  0  0  0  0  0  0  0
   14.6736   36.2270   34.9185 C   0  0  0  0  0  0  0  0  0  0  0  0
   13.8229   37.0451   35.5787 N   0  0  0  0  0  0  0  0  0  0  0  0
   16.1639   34.7593   33.1547 C   0  0  0  0  0  0  0  0  0  0  0  0
   15.6519   35.3489   35.4132 C   0  0  0  0  0  0  0  0  0  0  0  0
   16.3795   34.6308   34.5042 N   0  0  0  0  0  0  0  0  0  0  0  0
   15.9006   35.1931   36.8090 N   0  0  0  0  0  0  0  0  0  0  0  0
    9.7640   45.0028   32.1632 H   0  0  0  0  0  0  0  0  0  0  0  0
   10.8528   46.9446   33.0219 H   0  0  0  0  0  0  0  0  0  0  0  0
   11.9018   45.6662   32.9428 H   0  0  0  0  0  0  0  0  0  0  0  0
    7.8572   44.9059   33.8578 H   0  0  0  0  0  0  0  0  0  0  0  0
    8.8812   45.8020   35.0304 H   0  0  0  0  0  0  0  0  0  0  0  0
    6.6220   49.0102   32.7835 H   0  0  0  0  0  0  0  0  0  0  0  0
    6.4019   49.5069   34.4942 H   0  0  0  0  0  0  0  0  0  0  0  0
    9.9131   48.9790   33.8880 H   0  0  0  0  0  0  0  0  0  0  0  0
    8.4861   53.6555   33.1082 H   0  0  0  0  0  0  0  0  0  0  0  0
   11.5723   50.7537   33.6854 H   0  0  0  0  0  0  0  0  0  0  0  0
   10.8696   53.0934   33.3088 H   0  0  0  0  0  0  0  0  0  0  0  0
    9.8255   40.7180   31.7577 H   0  0  0  0  0  0  0  0  0  0  0  0
   11.3830   41.5502   31.4724 H   0  0  0  0  0  0  0  0  0  0  0  0
   11.7292   39.5285   30.3502 H   0  0  0  0  0  0  0  0  0  0  0  0
   10.1140   38.2719   32.6379 H   0  0  0  0  0  0  0  0  0  0  0  0
   13.6726   37.4635   31.2240 H   0  0  0  0  0  0  0  0  0  0  0  0
   10.0535   38.1084   29.7638 H   0  0  0  0  0  0  0  0  0  0  0  0
   11.2646   36.3134   32.5107 H   0  0  0  0  0  0  0  0  0  0  0  0
   12.1549   35.5031   30.6316 H   0  0  0  0  0  0  0  0  0  0  0  0
   12.3362   38.3586   34.7450 H   0  0  0  0  0  0  0  0  0  0  0  0
   16.7574   34.1788   32.4619 H   0  0  0  0  0  0  0  0  0  0  0  0
   16.6366   34.5314   37.1415 H   0  0  0  0  0  0  0  0  0  0  0  0
   15.3533   35.7353   37.5139 H   0  0  0  0  0  0  0  0  0  0  0  0
  1  2  2  0
  1  3  1  0
  3  4  1  0
  4  5  1  0
  6  1  1  0
  7  6  1  0
  6  8  1  0
  8  9  1  0
  9 10  1  0
  9 11  2  0
 10 12  1  0
 12 13  1  0
 13 14  2  0
 15 13  1  0
 14 16  1  0
 14 17  1  0
 18 15  2  0
 16 19  1  0
 16 20  2  0
 17 21  2  0
 21 18  1  0
  4 22  2  0
  4 23  1  0
 24 23  1  0
 24 25  1  0
 25 26  1  0
 25 27  1  0
 26 28  1  0
 27 29  1  0
 27 30  1  0
 30 28  1  0
 28 31  1  0
 30 32  1  0
 33 31  1  0
 34 31  1  0
 35 33  2  0
 33 36  1  0
 37 34  2  0
 38 35  1  0
 36 39  2  0
 36 37  1  0
 40 38  2  0
 40 39  1  0
 39 41  1  0
  6 42  1  6
  7 43  1  0
  7 44  1  0
  8 45  1  0
  8 46  1  0
 12 47  1  0
 12 48  1  0
 15 49  1  0
 17 50  1  0
 18 51  1  0
 21 52  1  0
 24 53  1  0
 24 54  1  0
 25 55  1  0
 27 56  1  0
 28 57  1  0
 29 58  1  0
 30 59  1  0
 32 60  1  0
 34 61  1  0
 38 62  1  0
 41 63  1  0
 41 64  1  0
M  CHG  3   5  -1  16   1  19  -1
M  END
>  <EmbedRMS>  (473) 
0.08803255040609106

$$$$

     RDKit          3D

 64 67  0  0  0  0  0  0  0  0999 V2000
   10.2831   43.7739   33.8099 C   0  0  0  0  0  0  0  0  0  0  0  0
   11.4085   43.5890   34.3598 O   0  0  0  0  0  0  0  0  0  0  0  0
    9.3657   42.7318   33.7027 O   0  0  0  0  0  0  0  0  0  0  0  0
    9.8851   41.2341   34.2844 P   0  0  0  0  0  5  0  0  0  0  0  0
   10.3664   41.4687   35.8747 O   0  0  0  0  0  1  0  0  0  0  0  0
    9.9601   45.1098   33.2399 C   0  0  2  0  0  0  0  0  0  0  0  0
   11.0695   46.0340   33.4824 N   0  0  0  0  0  0  0  0  0  0  0  0
    8.6151   45.6637   33.7662 C   0  0  0  0  0  0  0  0  0  0  0  0
    8.5942   45.8711   35.2638 C   0  0  0  0  0  0  0  0  0  0  0  0
    8.7014   47.1356   35.8601 O   0  0  0  0  0  0  0  0  0  0  0  0
    8.4850   44.8654   36.0128 O   0  0  0  0  0  0  0  0  0  0  0  0
    8.7495   48.3668   35.1422 C   0  0  0  0  0  0  0  0  0  0  0  0
    8.8485   49.5448   36.0850 C   0  0  0  0  0  0  0  0  0  0  0  0
    9.4395   50.7725   35.6788 C   0  0  0  0  0  0  0  0  0  0  0  0
    8.3066   49.4456   37.3818 C   0  0  0  0  0  0  0  0  0  0  0  0
    9.9250   50.9778   34.3405 N   0  0  0  0  0  4  0  0  0  0  0  0
    9.5457   51.8241   36.6055 C   0  0  0  0  0  0  0  0  0  0  0  0
    8.4052   50.5096   38.2793 C   0  0  0  0  0  0  0  0  0  0  0  0
   10.9941   51.8137   34.1192 O   0  0  0  0  0  1  0  0  0  0  0  0
    9.2812   50.5530   33.3589 O   0  0  0  0  0  0  0  0  0  0  0  0
    9.0336   51.6919   37.8959 C   0  0  0  0  0  0  0  0  0  0  0  0
    8.8079   40.1910   34.2088 O   0  0  0  0  0  0  0  0  0  0  0  0
   11.2369   40.7906   33.3680 O   0  0  0  0  0  0  0  0  0  0  0  0
   10.9153   40.6892   31.9950 C   0  0  0  0  0  0  0  0  0  0  0  0
   11.5248   39.3875   31.4365 C   0  0  0  0  0  0  0  0  0  0  0  0
   12.7483   39.0882   32.0805 O   0  0  0  0  0  0  0  0  0  0  0  0
   10.6098   38.1910   31.6470 C   0  0  0  0  0  0  0  0  0  0  0  0
   12.9346   37.6810   32.0293 C   0  0  0  0  0  0  0  0  0  0  0  0
    9.6126   38.0875   30.6544 O   0  0  0  0  0  0  0  0  0  0  0  0
   11.5766   37.0134   31.7025 C   0  0  0  0  0  0  0  0  0  0  0  0
   13.4902   37.2166   33.3236 N   0  0  0  0  0  0  0  0  0  0  0  0
   11.6325   36.3234   30.4739 O   0  0  0  0  0  0  0  0  0  0  0  0
   14.4765   36.3268   33.5727 C   0  0  0  0  0  0  0  0  0  0  0  0
   13.1180   37.6307   34.5689 C   0  0  0  0  0  0  0  0  0  0  0  0
   15.2067   35.6138   32.6738 N   0  0  0  0  0  0  0  0  0  0  0  0
   14.6739   36.2273   34.9182 C   0  0  0  0  0  0  0  0  0  0  0  0
   13.8230   37.0453   35.5783 N   0  0  0  0  0  0  0  0  0  0  0  0
   16.1641   34.7594   33.1545 C   0  0  0  0  0  0  0  0  0  0  0  0
   15.6520   35.3488   35.4131 C   0  0  0  0  0  0  0  0  0  0  0  0
   16.3795   34.6306   34.5041 N   0  0  0  0  0  0  0  0  0  0  0  0
   15.9006   35.1928   36.8091 N   0  0  0  0  0  0  0  0  0  0  0  0
    9.8602   44.9736   32.1405 H   0  0  0  0  0  0  0  0  0  0  0  0
   10.8853   46.9219   32.9614 H   0  0  0  0  0  0  0  0  0  0  0  0
   11.1290   46.2683   34.5000 H   0  0  0  0  0  0  0  0  0  0  0  0
    8.3789   46.6044   33.2296 H   0  0  0  0  0  0  0  0  0  0  0  0
    7.8021   44.9535   33.4998 H   0  0  0  0  0  0  0  0  0  0  0  0
    7.8270   48.4811   34.5346 H   0  0  0  0  0  0  0  0  0  0  0  0
    9.6360   48.3451   34.4775 H   0  0  0  0  0  0  0  0  0  0  0  0
    7.8100   48.5408   37.7079 H   0  0  0  0  0  0  0  0  0  0  0  0
   10.0010   52.7631   36.3177 H   0  0  0  0  0  0  0  0  0  0  0  0
    7.9936   50.4163   39.2757 H   0  0  0  0  0  0  0  0  0  0  0  0
    9.1096   52.5147   38.5949 H   0  0  0  0  0  0  0  0  0  0  0  0
    9.8252   40.7209   31.7578 H   0  0  0  0  0  0  0  0  0  0  0  0
   11.3837   41.5508   31.4730 H   0  0  0  0  0  0  0  0  0  0  0  0
   11.7271   39.5290   30.3503 H   0  0  0  0  0  0  0  0  0  0  0  0
   10.1115   38.2733   32.6387 H   0  0  0  0  0  0  0  0  0  0  0  0
   13.6682   37.4594   31.2225 H   0  0  0  0  0  0  0  0  0  0  0  0
   10.0517   38.1112   29.7648 H   0  0  0  0  0  0  0  0  0  0  0  0
   11.2804   36.3127   32.5193 H   0  0  0  0  0  0  0  0  0  0  0  0
   10.8632   35.6959   30.4640 H   0  0  0  0  0  0  0  0  0  0  0  0
   12.3355   38.3579   34.7442 H   0  0  0  0  0  0  0  0  0  0  0  0
   16.7579   34.1795   32.4615 H   0  0  0  0  0  0  0  0  0  0  0  0
   15.3534   35.7355   37.5137 H   0  0  0  0  0  0  0  0  0  0  0  0
   16.6368   34.5316   37.1422 H   0  0  0  0  0  0  0  0  0  0  0  0
  1  2  2  0
  1  3  1  0
  3  4  1  0
  4  5  1  0
  6  1  1  0
  7  6  1  0
  6  8  1  0
  8  9  1  0
  9 10  1  0
  9 11  2  0
 10 12  1  0
 12 13  1  0
 13 14  2  0
 15 13  1  0
 14 16  1  0
 14 17  1  0
 18 15  2  0
 16 19  1  0
 16 20  2  0
 17 21  2  0
 21 18  1  0
  4 22  2  0
  4 23  1  0
 24 23  1  0
 24 25  1  0
 25 26  1  0
 25 27  1  0
 26 28  1  0
 27 29  1  0
 27 30  1  0
 30 28  1  0
 28 31  1  0
 30 32  1  0
 33 31  1  0
 34 31  1  0
 35 33  2  0
 33 36  1  0
 37 34  2  0
 38 35  1  0
 36 39  2  0
 36 37  1  0
 40 38  2  0
 40 39  1  0
 39 41  1  0
  6 42  1  6
  7 43  1  0
  7 44  1  0
  8 45  1  0
  8 46  1  0
 12 47  1  0
 12 48  1  0
 15 49  1  0
 17 50  1  0
 18 51  1  0
 21 52  1  0
 24 53  1  0
 24 54  1  0
 25 55  1  0
 27 56  1  0
 28 57  1  0
 29 58  1  0
 30 59  1  0
 32 60  1  0
 34 61  1  0
 38 62  1  0
 41 63  1  0
 41 64  1  0
M  CHG  3   5  -1  16   1  19  -1
M  END
>  <EmbedRMS>  (474) 
0.0879391799820347

$$$$

     RDKit          3D

 64 67  0  0  0  0  0  0  0  0999 V2000
   10.2873   43.7712   33.8025 C   0  0  0  0  0  0  0  0  0  0  0  0
   11.4123   43.5867   34.3532 O   0  0  0  0  0  0  0  0  0  0  0  0
    9.3677   42.7307   33.6995 O   0  0  0  0  0  0  0  0  0  0  0  0
    9.8850   41.2344   34.2853 P   0  0  0  0  0  5  0  0  0  0  0  0
   10.3644   41.4713   35.8758 O   0  0  0  0  0  1  0  0  0  0  0  0
    9.9563   45.1117   33.2476 C   0  0  2  0  0  0  0  0  0  0  0  0
   11.0660   46.0371   33.4871 N   0  0  0  0  0  0  0  0  0  0  0  0
    8.6220   45.6556   33.8077 C   0  0  0  0  0  0  0  0  0  0  0  0
    8.6223   45.7890   35.3030 C   0  0  0  0  0  0  0  0  0  0  0  0
    8.5826   44.6359   36.0944 O   0  0  0  0  0  0  0  0  0  0  0  0
    8.6814   46.9328   35.8306 O   0  0  0  0  0  0  0  0  0  0  0  0
    8.5118   44.6546   37.5177 C   0  0  0  0  0  0  0  0  0  0  0  0
    7.1103   44.9844   37.9706 C   0  0  0  0  0  0  0  0  0  0  0  0
    6.0674   44.0173   37.9760 C   0  0  0  0  0  0  0  0  0  0  0  0
    6.8373   46.2920   38.4116 C   0  0  0  0  0  0  0  0  0  0  0  0
    6.2719   42.6651   37.5243 N   0  0  0  0  0  4  0  0  0  0  0  0
    4.7980   44.3855   38.4571 C   0  0  0  0  0  0  0  0  0  0  0  0
    5.5660   46.6389   38.8693 C   0  0  0  0  0  0  0  0  0  0  0  0
    5.5225   41.6426   38.0595 O   0  0  0  0  0  1  0  0  0  0  0  0
    6.9970   42.4217   36.5384 O   0  0  0  0  0  0  0  0  0  0  0  0
    4.5496   45.6865   38.8963 C   0  0  0  0  0  0  0  0  0  0  0  0
    8.8074   40.1917   34.2092 O   0  0  0  0  0  0  0  0  0  0  0  0
   11.2377   40.7900   33.3706 O   0  0  0  0  0  0  0  0  0  0  0  0
   10.9187   40.6904   31.9969 C   0  0  0  0  0  0  0  0  0  0  0  0
   11.5174   39.3825   31.4415 C   0  0  0  0  0  0  0  0  0  0  0  0
   12.7494   39.0893   32.0757 O   0  0  0  0  0  0  0  0  0  0  0  0
   10.6036   38.1899   31.6660 C   0  0  0  0  0  0  0  0  0  0  0  0
   12.9401   37.6834   32.0276 C   0  0  0  0  0  0  0  0  0  0  0  0
    9.6377   38.0786   30.6474 O   0  0  0  0  0  0  0  0  0  0  0  0
   11.5803   37.0204   31.6937 C   0  0  0  0  0  0  0  0  0  0  0  0
   13.4902   37.2177   33.3237 N   0  0  0  0  0  0  0  0  0  0  0  0
   11.6118   36.3194   30.4680 O   0  0  0  0  0  0  0  0  0  0  0  0
   14.4758   36.3271   33.5731 C   0  0  0  0  0  0  0  0  0  0  0  0
   13.1175   37.6317   34.5688 C   0  0  0  0  0  0  0  0  0  0  0  0
   15.2064   35.6141   32.6742 N   0  0  0  0  0  0  0  0  0  0  0  0
   14.6729   36.2274   34.9184 C   0  0  0  0  0  0  0  0  0  0  0  0
   13.8221   37.0457   35.5783 N   0  0  0  0  0  0  0  0  0  0  0  0
   16.1637   34.7597   33.1549 C   0  0  0  0  0  0  0  0  0  0  0  0
   15.6514   35.3493   35.4133 C   0  0  0  0  0  0  0  0  0  0  0  0
   16.3791   34.6312   34.5044 N   0  0  0  0  0  0  0  0  0  0  0  0
   15.9001   35.1935   36.8091 N   0  0  0  0  0  0  0  0  0  0  0  0
    9.8388   44.9899   32.1484 H   0  0  0  0  0  0  0  0  0  0  0  0
   11.1477   46.2432   34.5096 H   0  0  0  0  0  0  0  0  0  0  0  0
   10.8569   46.9411   33.0042 H   0  0  0  0  0  0  0  0  0  0  0  0
    8.4054   46.6430   33.3445 H   0  0  0  0  0  0  0  0  0  0  0  0
    7.7940   44.9743   33.5151 H   0  0  0  0  0  0  0  0  0  0  0  0
    8.8041   43.6574   37.9078 H   0  0  0  0  0  0  0  0  0  0  0  0
    9.2541   45.3758   37.9257 H   0  0  0  0  0  0  0  0  0  0  0  0
    7.6148   47.0460   38.4117 H   0  0  0  0  0  0  0  0  0  0  0  0
    3.9897   43.6656   38.4763 H   0  0  0  0  0  0  0  0  0  0  0  0
    5.3702   47.6477   39.2092 H   0  0  0  0  0  0  0  0  0  0  0  0
    3.5651   45.9573   39.2554 H   0  0  0  0  0  0  0  0  0  0  0  0
    9.8308   40.7396   31.7568 H   0  0  0  0  0  0  0  0  0  0  0  0
   11.3996   41.5456   31.4758 H   0  0  0  0  0  0  0  0  0  0  0  0
   11.6987   39.5096   30.3492 H   0  0  0  0  0  0  0  0  0  0  0  0
   10.1129   38.2588   32.6665 H   0  0  0  0  0  0  0  0  0  0  0  0
   13.6800   37.4628   31.2265 H   0  0  0  0  0  0  0  0  0  0  0  0
    8.8953   38.6909   30.8891 H   0  0  0  0  0  0  0  0  0  0  0  0
   11.2831   36.3060   32.4929 H   0  0  0  0  0  0  0  0  0  0  0  0
   11.8858   36.9590   29.7593 H   0  0  0  0  0  0  0  0  0  0  0  0
   12.3360   38.3600   34.7442 H   0  0  0  0  0  0  0  0  0  0  0  0
   16.7572   34.1793   32.4621 H   0  0  0  0  0  0  0  0  0  0  0  0
   16.6362   34.5318   37.1416 H   0  0  0  0  0  0  0  0  0  0  0  0
   15.3528   35.7357   37.5140 H   0  0  0  0  0  0  0  0  0  0  0  0
  1  2  2  0
  1  3  1  0
  3  4  1  0
  4  5  1  0
  6  1  1  0
  7  6  1  0
  6  8  1  0
  8  9  1  0
  9 10  1  0
  9 11  2  0
 10 12  1  0
 12 13  1  0
 13 14  2  0
 15 13  1  0
 14 16  1  0
 14 17  1  0
 18 15  2  0
 16 19  1  0
 16 20  2  0
 17 21  2  0
 21 18  1  0
  4 22  2  0
  4 23  1  0
 24 23  1  0
 24 25  1  0
 25 26  1  0
 25 27  1  0
 26 28  1  0
 27 29  1  0
 27 30  1  0
 30 28  1  0
 28 31  1  0
 30 32  1  0
 33 31  1  0
 34 31  1  0
 35 33  2  0
 33 36  1  0
 37 34  2  0
 38 35  1  0
 36 39  2  0
 36 37  1  0
 40 38  2  0
 40 39  1  0
 39 41  1  0
  6 42  1  6
  7 43  1  0
  7 44  1  0
  8 45  1  0
  8 46  1  0
 12 47  1  0
 12 48  1  0
 15 49  1  0
 17 50  1  0
 18 51  1  0
 21 52  1  0
 24 53  1  0
 24 54  1  0
 25 55  1  0
 27 56  1  0
 28 57  1  0
 29 58  1  0
 30 59  1  0
 32 60  1  0
 34 61  1  0
 38 62  1  0
 41 63  1  0
 41 64  1  0
M  CHG  3   5  -1  16   1  19  -1
M  END
>  <EmbedRMS>  (475) 
0.08825495981090796

$$$$

     RDKit          3D

 64 67  0  0  0  0  0  0  0  0999 V2000
   10.2862   43.7710   33.8099 C   0  0  0  0  0  0  0  0  0  0  0  0
   11.4101   43.5818   34.3616 O   0  0  0  0  0  0  0  0  0  0  0  0
    9.3668   42.7309   33.7021 O   0  0  0  0  0  0  0  0  0  0  0  0
    9.8847   41.2330   34.2845 P   0  0  0  0  0  5  0  0  0  0  0  0
   10.3648   41.4677   35.8752 O   0  0  0  0  0  1  0  0  0  0  0  0
    9.9608   45.1122   33.2472 C   0  0  2  0  0  0  0  0  0  0  0  0
   11.0655   46.0479   33.4748 N   0  0  0  0  0  0  0  0  0  0  0  0
    8.6641   45.6565   33.8703 C   0  0  0  0  0  0  0  0  0  0  0  0
    8.2877   46.9703   33.2602 C   0  0  0  0  0  0  0  0  0  0  0  0
    8.7143   48.1563   33.8673 O   0  0  0  0  0  0  0  0  0  0  0  0
    7.6343   46.9949   32.1821 O   0  0  0  0  0  0  0  0  0  0  0  0
    8.5290   49.4467   33.2879 C   0  0  0  0  0  0  0  0  0  0  0  0
    9.4095   49.6147   32.0698 C   0  0  0  0  0  0  0  0  0  0  0  0
    8.9175   50.0727   30.8186 C   0  0  0  0  0  0  0  0  0  0  0  0
   10.7901   49.3895   32.2203 C   0  0  0  0  0  0  0  0  0  0  0  0
    7.5217   50.3178   30.5926 N   0  0  0  0  0  4  0  0  0  0  0  0
    9.8204   50.3011   29.7666 C   0  0  0  0  0  0  0  0  0  0  0  0
   11.6684   49.6022   31.1571 C   0  0  0  0  0  0  0  0  0  0  0  0
    7.1351   51.4211   29.8674 O   0  0  0  0  0  1  0  0  0  0  0  0
    6.6860   49.4160   30.8059 O   0  0  0  0  0  0  0  0  0  0  0  0
   11.1849   50.0609   29.9334 C   0  0  0  0  0  0  0  0  0  0  0  0
    8.8073   40.1902   34.2076 O   0  0  0  0  0  0  0  0  0  0  0  0
   11.2377   40.7904   33.3696 O   0  0  0  0  0  0  0  0  0  0  0  0
   10.9187   40.6905   31.9961 C   0  0  0  0  0  0  0  0  0  0  0  0
   11.5175   39.3824   31.4411 C   0  0  0  0  0  0  0  0  0  0  0  0
   12.7494   39.0893   32.0756 O   0  0  0  0  0  0  0  0  0  0  0  0
   10.6036   38.1899   31.6659 C   0  0  0  0  0  0  0  0  0  0  0  0
   12.9401   37.6834   32.0276 C   0  0  0  0  0  0  0  0  0  0  0  0
    9.6376   38.0785   30.6474 O   0  0  0  0  0  0  0  0  0  0  0  0
   11.5804   37.0204   31.6937 C   0  0  0  0  0  0  0  0  0  0  0  0
   13.4902   37.2177   33.3237 N   0  0  0  0  0  0  0  0  0  0  0  0
   11.6118   36.3193   30.4680 O   0  0  0  0  0  0  0  0  0  0  0  0
   14.4759   36.3271   33.5731 C   0  0  0  0  0  0  0  0  0  0  0  0
   13.1176   37.6317   34.5688 C   0  0  0  0  0  0  0  0  0  0  0  0
   15.2064   35.6141   32.6742 N   0  0  0  0  0  0  0  0  0  0  0  0
   14.6729   36.2274   34.9184 C   0  0  0  0  0  0  0  0  0  0  0  0
   13.8221   37.0457   35.5783 N   0  0  0  0  0  0  0  0  0  0  0  0
   16.1637   34.7597   33.1549 C   0  0  0  0  0  0  0  0  0  0  0  0
   15.6514   35.3493   35.4133 C   0  0  0  0  0  0  0  0  0  0  0  0
   16.3791   34.6312   34.5044 N   0  0  0  0  0  0  0  0  0  0  0  0
   15.9001   35.1935   36.8091 N   0  0  0  0  0  0  0  0  0  0  0  0
    9.8105   44.9953   32.1509 H   0  0  0  0  0  0  0  0  0  0  0  0
   11.2750   46.1196   34.4981 H   0  0  0  0  0  0  0  0  0  0  0  0
   11.9220   45.7036   32.9820 H   0  0  0  0  0  0  0  0  0  0  0  0
    7.8326   44.9361   33.7074 H   0  0  0  0  0  0  0  0  0  0  0  0
    8.7924   45.7846   34.9675 H   0  0  0  0  0  0  0  0  0  0  0  0
    7.4536   49.6116   33.0848 H   0  0  0  0  0  0  0  0  0  0  0  0
    8.8266   50.2105   34.0368 H   0  0  0  0  0  0  0  0  0  0  0  0
   11.1896   49.0569   33.1708 H   0  0  0  0  0  0  0  0  0  0  0  0
    9.4615   50.6513   28.8069 H   0  0  0  0  0  0  0  0  0  0  0  0
   12.7278   49.4214   31.2864 H   0  0  0  0  0  0  0  0  0  0  0  0
   11.8686   50.2317   29.1118 H   0  0  0  0  0  0  0  0  0  0  0  0
   11.3998   41.5455   31.4747 H   0  0  0  0  0  0  0  0  0  0  0  0
    9.8308   40.7397   31.7558 H   0  0  0  0  0  0  0  0  0  0  0  0
   11.6989   39.5091   30.3489 H   0  0  0  0  0  0  0  0  0  0  0  0
   10.1130   38.2588   32.6663 H   0  0  0  0  0  0  0  0  0  0  0  0
   13.6800   37.4628   31.2265 H   0  0  0  0  0  0  0  0  0  0  0  0
    8.8952   38.6908   30.8891 H   0  0  0  0  0  0  0  0  0  0  0  0
   11.2830   36.3060   32.4929 H   0  0  0  0  0  0  0  0  0  0  0  0
   11.8860   36.9589   29.7593 H   0  0  0  0  0  0  0  0  0  0  0  0
   12.3360   38.3600   34.7441 H   0  0  0  0  0  0  0  0  0  0  0  0
   16.7572   34.1793   32.4621 H   0  0  0  0  0  0  0  0  0  0  0  0
   16.6362   34.5318   37.1416 H   0  0  0  0  0  0  0  0  0  0  0  0
   15.3528   35.7356   37.5140 H   0  0  0  0  0  0  0  0  0  0  0  0
  1  2  2  0
  1  3  1  0
  3  4  1  0
  4  5  1  0
  6  1  1  0
  7  6  1  0
  6  8  1  0
  8  9  1  0
  9 10  1  0
  9 11  2  0
 10 12  1  0
 12 13  1  0
 13 14  2  0
 15 13  1  0
 14 16  1  0
 14 17  1  0
 18 15  2  0
 16 19  1  0
 16 20  2  0
 17 21  2  0
 21 18  1  0
  4 22  2  0
  4 23  1  0
 24 23  1  0
 24 25  1  0
 25 26  1  0
 25 27  1  0
 26 28  1  0
 27 29  1  0
 27 30  1  0
 30 28  1  0
 28 31  1  0
 30 32  1  0
 33 31  1  0
 34 31  1  0
 35 33  2  0
 33 36  1  0
 37 34  2  0
 38 35  1  0
 36 39  2  0
 36 37  1  0
 40 38  2  0
 40 39  1  0
 39 41  1  0
  6 42  1  6
  7 43  1  0
  7 44  1  0
  8 45  1  0
  8 46  1  0
 12 47  1  0
 12 48  1  0
 15 49  1  0
 17 50  1  0
 18 51  1  0
 21 52  1  0
 24 53  1  0
 24 54  1  0
 25 55  1  0
 27 56  1  0
 28 57  1  0
 29 58  1  0
 30 59  1  0
 32 60  1  0
 34 61  1  0
 38 62  1  0
 41 63  1  0
 41 64  1  0
M  CHG  3   5  -1  16   1  19  -1
M  END
>  <EmbedRMS>  (476) 
0.08882471248469967

$$$$

     RDKit          3D

 64 67  0  0  0  0  0  0  0  0999 V2000
   10.2845   43.7742   33.8068 C   0  0  0  0  0  0  0  0  0  0  0  0
   11.4069   43.5903   34.3636 O   0  0  0  0  0  0  0  0  0  0  0  0
    9.3684   42.7308   33.6984 O   0  0  0  0  0  0  0  0  0  0  0  0
    9.8864   41.2339   34.2831 P   0  0  0  0  0  5  0  0  0  0  0  0
   10.3659   41.4695   35.8740 O   0  0  0  0  0  1  0  0  0  0  0  0
    9.9492   45.1163   33.2547 C   0  0  2  0  0  0  0  0  0  0  0  0
   11.0753   46.0280   33.4733 N   0  0  0  0  0  0  0  0  0  0  0  0
    8.6781   45.6531   33.9422 C   0  0  0  0  0  0  0  0  0  0  0  0
    8.1788   46.9026   33.2853 C   0  0  0  0  0  0  0  0  0  0  0  0
    8.4542   48.1450   33.8679 O   0  0  0  0  0  0  0  0  0  0  0  0
    7.5377   46.8267   32.2015 O   0  0  0  0  0  0  0  0  0  0  0  0
    8.0154   49.3833   33.3093 C   0  0  0  0  0  0  0  0  0  0  0  0
    6.5164   49.5567   33.4420 C   0  0  0  0  0  0  0  0  0  0  0  0
    5.7590   50.2769   32.4797 C   0  0  0  0  0  0  0  0  0  0  0  0
    5.8570   49.0132   34.5619 C   0  0  0  0  0  0  0  0  0  0  0  0
    6.3816   50.9517   31.3734 N   0  0  0  0  0  4  0  0  0  0  0  0
    4.3618   50.3481   32.6180 C   0  0  0  0  0  0  0  0  0  0  0  0
    4.4711   49.1128   34.6911 C   0  0  0  0  0  0  0  0  0  0  0  0
    5.7153   51.0621   30.1746 O   0  0  0  0  0  1  0  0  0  0  0  0
    7.4220   51.6194   31.5465 O   0  0  0  0  0  0  0  0  0  0  0  0
    3.7237   49.7677   33.7146 C   0  0  0  0  0  0  0  0  0  0  0  0
    8.8088   40.1911   34.2072 O   0  0  0  0  0  0  0  0  0  0  0  0
   11.2391   40.7899   33.3683 O   0  0  0  0  0  0  0  0  0  0  0  0
   10.9199   40.6894   31.9946 C   0  0  0  0  0  0  0  0  0  0  0  0
   11.5173   39.3800   31.4395 C   0  0  0  0  0  0  0  0  0  0  0  0
   12.7480   39.0860   32.0731 O   0  0  0  0  0  0  0  0  0  0  0  0
   10.6032   38.1891   31.6666 C   0  0  0  0  0  0  0  0  0  0  0  0
   12.9336   37.6795   32.0279 C   0  0  0  0  0  0  0  0  0  0  0  0
    9.6397   38.0777   30.6457 O   0  0  0  0  0  0  0  0  0  0  0  0
   11.5739   37.0153   31.7057 C   0  0  0  0  0  0  0  0  0  0  0  0
   13.4903   37.2177   33.3231 N   0  0  0  0  0  0  0  0  0  0  0  0
   11.6211   36.3376   30.4695 O   0  0  0  0  0  0  0  0  0  0  0  0
   14.4761   36.3273   33.5725 C   0  0  0  0  0  0  0  0  0  0  0  0
   13.1179   37.6316   34.5684 C   0  0  0  0  0  0  0  0  0  0  0  0
   15.2063   35.6138   32.6737 N   0  0  0  0  0  0  0  0  0  0  0  0
   14.6734   36.2277   34.9180 C   0  0  0  0  0  0  0  0  0  0  0  0
   13.8225   37.0459   35.5779 N   0  0  0  0  0  0  0  0  0  0  0  0
   16.1636   34.7594   33.1546 C   0  0  0  0  0  0  0  0  0  0  0  0
   15.6515   35.3494   35.4129 C   0  0  0  0  0  0  0  0  0  0  0  0
   16.3791   34.6311   34.5041 N   0  0  0  0  0  0  0  0  0  0  0  0
   15.9001   35.1935   36.8088 N   0  0  0  0  0  0  0  0  0  0  0  0
    9.7636   45.0047   32.1622 H   0  0  0  0  0  0  0  0  0  0  0  0
   10.8449   46.9558   33.0502 H   0  0  0  0  0  0  0  0  0  0  0  0
   11.8949   45.6779   32.9243 H   0  0  0  0  0  0  0  0  0  0  0  0
    8.8862   45.8574   35.0155 H   0  0  0  0  0  0  0  0  0  0  0  0
    7.8674   44.8931   33.8954 H   0  0  0  0  0  0  0  0  0  0  0  0
    8.5163   50.2138   33.8489 H   0  0  0  0  0  0  0  0  0  0  0  0
    8.3349   49.4172   32.2462 H   0  0  0  0  0  0  0  0  0  0  0  0
    6.4136   48.4964   35.3337 H   0  0  0  0  0  0  0  0  0  0  0  0
    3.7662   50.8810   31.8877 H   0  0  0  0  0  0  0  0  0  0  0  0
    3.9754   48.6775   35.5492 H   0  0  0  0  0  0  0  0  0  0  0  0
    2.6484   49.8405   33.8156 H   0  0  0  0  0  0  0  0  0  0  0  0
   11.4019   41.5435   31.4726 H   0  0  0  0  0  0  0  0  0  0  0  0
    9.8321   40.7398   31.7543 H   0  0  0  0  0  0  0  0  0  0  0  0
   11.6984   39.5040   30.3468 H   0  0  0  0  0  0  0  0  0  0  0  0
   10.1091   38.2633   32.6649 H   0  0  0  0  0  0  0  0  0  0  0  0
   13.6656   37.4538   31.2207 H   0  0  0  0  0  0  0  0  0  0  0  0
    8.8966   38.6901   30.8851 H   0  0  0  0  0  0  0  0  0  0  0  0
   11.2845   36.3059   32.5175 H   0  0  0  0  0  0  0  0  0  0  0  0
   10.8523   35.7094   30.4590 H   0  0  0  0  0  0  0  0  0  0  0  0
   12.3353   38.3587   34.7439 H   0  0  0  0  0  0  0  0  0  0  0  0
   16.7570   34.1787   32.4619 H   0  0  0  0  0  0  0  0  0  0  0  0
   16.6360   34.5317   37.1414 H   0  0  0  0  0  0  0  0  0  0  0  0
   15.3529   35.7359   37.5136 H   0  0  0  0  0  0  0  0  0  0  0  0
  1  2  2  0
  1  3  1  0
  3  4  1  0
  4  5  1  0
  6  1  1  0
  7  6  1  0
  6  8  1  0
  8  9  1  0
  9 10  1  0
  9 11  2  0
 10 12  1  0
 12 13  1  0
 13 14  2  0
 15 13  1  0
 14 16  1  0
 14 17  1  0
 18 15  2  0
 16 19  1  0
 16 20  2  0
 17 21  2  0
 21 18  1  0
  4 22  2  0
  4 23  1  0
 24 23  1  0
 24 25  1  0
 25 26  1  0
 25 27  1  0
 26 28  1  0
 27 29  1  0
 27 30  1  0
 30 28  1  0
 28 31  1  0
 30 32  1  0
 33 31  1  0
 34 31  1  0
 35 33  2  0
 33 36  1  0
 37 34  2  0
 38 35  1  0
 36 39  2  0
 36 37  1  0
 40 38  2  0
 40 39  1  0
 39 41  1  0
  6 42  1  6
  7 43  1  0
  7 44  1  0
  8 45  1  0
  8 46  1  0
 12 47  1  0
 12 48  1  0
 15 49  1  0
 17 50  1  0
 18 51  1  0
 21 52  1  0
 24 53  1  0
 24 54  1  0
 25 55  1  0
 27 56  1  0
 28 57  1  0
 29 58  1  0
 30 59  1  0
 32 60  1  0
 34 61  1  0
 38 62  1  0
 41 63  1  0
 41 64  1  0
M  CHG  3   5  -1  16   1  19  -1
M  END
>  <EmbedRMS>  (477) 
0.08953337470205437

$$$$

     RDKit          3D

 64 67  0  0  0  0  0  0  0  0999 V2000
   10.2839   43.7719   33.8120 C   0  0  0  0  0  0  0  0  0  0  0  0
   11.4080   43.5828   34.3634 O   0  0  0  0  0  0  0  0  0  0  0  0
    9.3684   42.7290   33.7002 O   0  0  0  0  0  0  0  0  0  0  0  0
    9.8853   41.2323   34.2840 P   0  0  0  0  0  5  0  0  0  0  0  0
   10.3658   41.4678   35.8745 O   0  0  0  0  0  1  0  0  0  0  0  0
    9.9582   45.1172   33.2498 C   0  0  2  0  0  0  0  0  0  0  0  0
   11.0688   46.0455   33.4709 N   0  0  0  0  0  0  0  0  0  0  0  0
    8.6780   45.7010   33.8765 C   0  0  0  0  0  0  0  0  0  0  0  0
    7.4517   44.9465   33.4606 C   0  0  0  0  0  0  0  0  0  0  0  0
    7.0692   44.9435   32.1147 O   0  0  0  0  0  0  0  0  0  0  0  0
    6.7826   44.3133   34.3223 O   0  0  0  0  0  0  0  0  0  0  0  0
    5.9185   44.2537   31.6308 C   0  0  0  0  0  0  0  0  0  0  0  0
    4.6498   44.9165   32.1173 C   0  0  0  0  0  0  0  0  0  0  0  0
    4.3906   46.3003   31.9154 C   0  0  0  0  0  0  0  0  0  0  0  0
    3.7169   44.1402   32.8295 C   0  0  0  0  0  0  0  0  0  0  0  0
    5.2936   47.1500   31.1838 N   0  0  0  0  0  4  0  0  0  0  0  0
    3.2242   46.8641   32.4628 C   0  0  0  0  0  0  0  0  0  0  0  0
    2.5583   44.7178   33.3497 C   0  0  0  0  0  0  0  0  0  0  0  0
    5.3759   48.4891   31.4897 O   0  0  0  0  0  1  0  0  0  0  0  0
    5.8854   46.7304   30.1686 O   0  0  0  0  0  0  0  0  0  0  0  0
    2.3148   46.0776   33.1710 C   0  0  0  0  0  0  0  0  0  0  0  0
    8.8071   40.1903   34.2080 O   0  0  0  0  0  0  0  0  0  0  0  0
   11.2368   40.7898   33.3672 O   0  0  0  0  0  0  0  0  0  0  0  0
   10.9136   40.6859   31.9946 C   0  0  0  0  0  0  0  0  0  0  0  0
   11.5169   39.3797   31.4407 C   0  0  0  0  0  0  0  0  0  0  0  0
   12.7488   39.0886   32.0760 O   0  0  0  0  0  0  0  0  0  0  0  0
   10.6051   38.1876   31.6658 C   0  0  0  0  0  0  0  0  0  0  0  0
   12.9411   37.6828   32.0277 C   0  0  0  0  0  0  0  0  0  0  0  0
    9.6358   38.0930   30.6502 O   0  0  0  0  0  0  0  0  0  0  0  0
   11.5826   37.0179   31.6936 C   0  0  0  0  0  0  0  0  0  0  0  0
   13.4909   37.2177   33.3239 N   0  0  0  0  0  0  0  0  0  0  0  0
   11.6140   36.3179   30.4675 O   0  0  0  0  0  0  0  0  0  0  0  0
   14.4762   36.3270   33.5733 C   0  0  0  0  0  0  0  0  0  0  0  0
   13.1179   37.6316   34.5688 C   0  0  0  0  0  0  0  0  0  0  0  0
   15.2067   35.6140   32.6743 N   0  0  0  0  0  0  0  0  0  0  0  0
   14.6731   36.2273   34.9186 C   0  0  0  0  0  0  0  0  0  0  0  0
   13.8223   37.0456   35.5785 N   0  0  0  0  0  0  0  0  0  0  0  0
   16.1639   34.7595   33.1550 C   0  0  0  0  0  0  0  0  0  0  0  0
   15.6515   35.3491   35.4134 C   0  0  0  0  0  0  0  0  0  0  0  0
   16.3792   34.6310   34.5045 N   0  0  0  0  0  0  0  0  0  0  0  0
   15.9002   35.1933   36.8092 N   0  0  0  0  0  0  0  0  0  0  0  0
    9.8087   45.0104   32.1525 H   0  0  0  0  0  0  0  0  0  0  0  0
   11.9216   45.6939   32.9764 H   0  0  0  0  0  0  0  0  0  0  0  0
   11.2829   46.1170   34.4934 H   0  0  0  0  0  0  0  0  0  0  0  0
    8.5566   46.7548   33.5443 H   0  0  0  0  0  0  0  0  0  0  0  0
    8.7661   45.7075   34.9858 H   0  0  0  0  0  0  0  0  0  0  0  0
    5.9307   44.2526   30.5217 H   0  0  0  0  0  0  0  0  0  0  0  0
    5.9737   43.1885   31.9465 H   0  0  0  0  0  0  0  0  0  0  0  0
    3.8909   43.0841   32.9951 H   0  0  0  0  0  0  0  0  0  0  0  0
    3.0085   47.9162   32.3265 H   0  0  0  0  0  0  0  0  0  0  0  0
    1.8509   44.1100   33.8990 H   0  0  0  0  0  0  0  0  0  0  0  0
    1.4173   46.5239   33.5794 H   0  0  0  0  0  0  0  0  0  0  0  0
    9.8235   40.7212   31.7579 H   0  0  0  0  0  0  0  0  0  0  0  0
   11.3858   41.5433   31.4692 H   0  0  0  0  0  0  0  0  0  0  0  0
   11.6993   39.5065   30.3485 H   0  0  0  0  0  0  0  0  0  0  0  0
   10.1120   38.2723   32.6631 H   0  0  0  0  0  0  0  0  0  0  0  0
   13.6816   37.4631   31.2268 H   0  0  0  0  0  0  0  0  0  0  0  0
    9.0034   37.3830   30.9350 H   0  0  0  0  0  0  0  0  0  0  0  0
   11.2845   36.3040   32.4928 H   0  0  0  0  0  0  0  0  0  0  0  0
   11.8849   36.9590   29.7588 H   0  0  0  0  0  0  0  0  0  0  0  0
   12.3363   38.3599   34.7441 H   0  0  0  0  0  0  0  0  0  0  0  0
   16.7574   34.1790   32.4623 H   0  0  0  0  0  0  0  0  0  0  0  0
   16.6363   34.5317   37.1417 H   0  0  0  0  0  0  0  0  0  0  0  0
   15.3529   35.7356   37.5141 H   0  0  0  0  0  0  0  0  0  0  0  0
  1  2  2  0
  1  3  1  0
  3  4  1  0
  4  5  1  0
  6  1  1  0
  7  6  1  0
  6  8  1  0
  8  9  1  0
  9 10  1  0
  9 11  2  0
 10 12  1  0
 12 13  1  0
 13 14  2  0
 15 13  1  0
 14 16  1  0
 14 17  1  0
 18 15  2  0
 16 19  1  0
 16 20  2  0
 17 21  2  0
 21 18  1  0
  4 22  2  0
  4 23  1  0
 24 23  1  0
 24 25  1  0
 25 26  1  0
 25 27  1  0
 26 28  1  0
 27 29  1  0
 27 30  1  0
 30 28  1  0
 28 31  1  0
 30 32  1  0
 33 31  1  0
 34 31  1  0
 35 33  2  0
 33 36  1  0
 37 34  2  0
 38 35  1  0
 36 39  2  0
 36 37  1  0
 40 38  2  0
 40 39  1  0
 39 41  1  0
  6 42  1  6
  7 43  1  0
  7 44  1  0
  8 45  1  0
  8 46  1  0
 12 47  1  0
 12 48  1  0
 15 49  1  0
 17 50  1  0
 18 51  1  0
 21 52  1  0
 24 53  1  0
 24 54  1  0
 25 55  1  0
 27 56  1  0
 28 57  1  0
 29 58  1  0
 30 59  1  0
 32 60  1  0
 34 61  1  0
 38 62  1  0
 41 63  1  0
 41 64  1  0
M  CHG  3   5  -1  16   1  19  -1
M  END
>  <EmbedRMS>  (478) 
0.08857646816675317

$$$$

     RDKit          3D

 64 67  0  0  0  0  0  0  0  0999 V2000
   10.2865   43.7713   33.8013 C   0  0  0  0  0  0  0  0  0  0  0  0
   11.4108   43.5871   34.3538 O   0  0  0  0  0  0  0  0  0  0  0  0
    9.3669   42.7307   33.6993 O   0  0  0  0  0  0  0  0  0  0  0  0
    9.8851   41.2343   34.2852 P   0  0  0  0  0  5  0  0  0  0  0  0
   10.3684   41.4704   35.8746 O   0  0  0  0  0  1  0  0  0  0  0  0
    9.9594   45.1112   33.2398 C   0  0  2  0  0  0  0  0  0  0  0  0
   11.0645   46.0377   33.4942 N   0  0  0  0  0  0  0  0  0  0  0  0
    8.6161   45.6581   33.7765 C   0  0  0  0  0  0  0  0  0  0  0  0
    8.5570   45.6938   35.2754 C   0  0  0  0  0  0  0  0  0  0  0  0
    8.3091   44.5094   35.9730 O   0  0  0  0  0  0  0  0  0  0  0  0
    8.7620   46.7753   35.8912 O   0  0  0  0  0  0  0  0  0  0  0  0
    8.3132   44.4254   37.3946 C   0  0  0  0  0  0  0  0  0  0  0  0
    8.0963   42.9970   37.8414 C   0  0  0  0  0  0  0  0  0  0  0  0
    8.6442   42.5045   39.0565 C   0  0  0  0  0  0  0  0  0  0  0  0
    7.3247   42.1311   37.0404 C   0  0  0  0  0  0  0  0  0  0  0  0
    9.3508   43.3588   39.9727 N   0  0  0  0  0  4  0  0  0  0  0  0
    8.4847   41.1459   39.3811 C   0  0  0  0  0  0  0  0  0  0  0  0
    7.1633   40.7902   37.3906 C   0  0  0  0  0  0  0  0  0  0  0  0
   10.3613   42.8436   40.7517 O   0  0  0  0  0  1  0  0  0  0  0  0
    8.9316   44.5091   40.2160 O   0  0  0  0  0  0  0  0  0  0  0  0
    7.7529   40.2955   38.5516 C   0  0  0  0  0  0  0  0  0  0  0  0
    8.8072   40.1917   34.2112 O   0  0  0  0  0  0  0  0  0  0  0  0
   11.2364   40.7891   33.3690 O   0  0  0  0  0  0  0  0  0  0  0  0
   10.9153   40.6887   31.9958 C   0  0  0  0  0  0  0  0  0  0  0  0
   11.5248   39.3873   31.4367 C   0  0  0  0  0  0  0  0  0  0  0  0
   12.7484   39.0880   32.0804 O   0  0  0  0  0  0  0  0  0  0  0  0
   10.6099   38.1909   31.6472 C   0  0  0  0  0  0  0  0  0  0  0  0
   12.9347   37.6809   32.0293 C   0  0  0  0  0  0  0  0  0  0  0  0
    9.6125   38.0874   30.6547 O   0  0  0  0  0  0  0  0  0  0  0  0
   11.5766   37.0133   31.7026 C   0  0  0  0  0  0  0  0  0  0  0  0
   13.4901   37.2166   33.3237 N   0  0  0  0  0  0  0  0  0  0  0  0
   11.6321   36.3231   30.4742 O   0  0  0  0  0  0  0  0  0  0  0  0
   14.4762   36.3267   33.5728 C   0  0  0  0  0  0  0  0  0  0  0  0
   13.1178   37.6307   34.5690 C   0  0  0  0  0  0  0  0  0  0  0  0
   15.2065   35.6136   32.6739 N   0  0  0  0  0  0  0  0  0  0  0  0
   14.6735   36.2272   34.9182 C   0  0  0  0  0  0  0  0  0  0  0  0
   13.8228   37.0453   35.5784 N   0  0  0  0  0  0  0  0  0  0  0  0
   16.1639   34.7593   33.1547 C   0  0  0  0  0  0  0  0  0  0  0  0
   15.6518   35.3491   35.4131 C   0  0  0  0  0  0  0  0  0  0  0  0
   16.3794   34.6309   34.5042 N   0  0  0  0  0  0  0  0  0  0  0  0
   15.9004   35.1933   36.8089 N   0  0  0  0  0  0  0  0  0  0  0  0
    9.8599   44.9883   32.1390 H   0  0  0  0  0  0  0  0  0  0  0  0
   10.8688   46.9363   32.9958 H   0  0  0  0  0  0  0  0  0  0  0  0
   11.1197   46.2552   34.5160 H   0  0  0  0  0  0  0  0  0  0  0  0
    8.4399   46.6777   33.3700 H   0  0  0  0  0  0  0  0  0  0  0  0
    7.7873   45.0158   33.4074 H   0  0  0  0  0  0  0  0  0  0  0  0
    7.5050   45.0650   37.8093 H   0  0  0  0  0  0  0  0  0  0  0  0
    9.2975   44.7933   37.7552 H   0  0  0  0  0  0  0  0  0  0  0  0
    6.8608   42.4853   36.1284 H   0  0  0  0  0  0  0  0  0  0  0  0
    8.9071   40.7483   40.2951 H   0  0  0  0  0  0  0  0  0  0  0  0
    6.5843   40.1317   36.7560 H   0  0  0  0  0  0  0  0  0  0  0  0
    7.6296   39.2538   38.8185 H   0  0  0  0  0  0  0  0  0  0  0  0
    9.8252   40.7199   31.7587 H   0  0  0  0  0  0  0  0  0  0  0  0
   11.3837   41.5507   31.4744 H   0  0  0  0  0  0  0  0  0  0  0  0
   11.7269   39.5291   30.3505 H   0  0  0  0  0  0  0  0  0  0  0  0
   10.1120   38.2730   32.6391 H   0  0  0  0  0  0  0  0  0  0  0  0
   13.6684   37.4593   31.2225 H   0  0  0  0  0  0  0  0  0  0  0  0
   10.0513   38.1110   29.7648 H   0  0  0  0  0  0  0  0  0  0  0  0
   11.2801   36.3128   32.5196 H   0  0  0  0  0  0  0  0  0  0  0  0
   10.8625   35.6960   30.4646 H   0  0  0  0  0  0  0  0  0  0  0  0
   12.3355   38.3581   34.7446 H   0  0  0  0  0  0  0  0  0  0  0  0
   16.7574   34.1788   32.4619 H   0  0  0  0  0  0  0  0  0  0  0  0
   15.3531   35.7356   37.5138 H   0  0  0  0  0  0  0  0  0  0  0  0
   16.6364   34.5315   37.1415 H   0  0  0  0  0  0  0  0  0  0  0  0
  1  2  2  0
  1  3  1  0
  3  4  1  0
  4  5  1  0
  6  1  1  0
  7  6  1  0
  6  8  1  0
  8  9  1  0
  9 10  1  0
  9 11  2  0
 10 12  1  0
 12 13  1  0
 13 14  2  0
 15 13  1  0
 14 16  1  0
 14 17  1  0
 18 15  2  0
 16 19  1  0
 16 20  2  0
 17 21  2  0
 21 18  1  0
  4 22  2  0
  4 23  1  0
 24 23  1  0
 24 25  1  0
 25 26  1  0
 25 27  1  0
 26 28  1  0
 27 29  1  0
 27 30  1  0
 30 28  1  0
 28 31  1  0
 30 32  1  0
 33 31  1  0
 34 31  1  0
 35 33  2  0
 33 36  1  0
 37 34  2  0
 38 35  1  0
 36 39  2  0
 36 37  1  0
 40 38  2  0
 40 39  1  0
 39 41  1  0
  6 42  1  6
  7 43  1  0
  7 44  1  0
  8 45  1  0
  8 46  1  0
 12 47  1  0
 12 48  1  0
 15 49  1  0
 17 50  1  0
 18 51  1  0
 21 52  1  0
 24 53  1  0
 24 54  1  0
 25 55  1  0
 27 56  1  0
 28 57  1  0
 29 58  1  0
 30 59  1  0
 32 60  1  0
 34 61  1  0
 38 62  1  0
 41 63  1  0
 41 64  1  0
M  CHG  3   5  -1  16   1  19  -1
M  END
>  <EmbedRMS>  (479) 
0.08799127331235748

$$$$

     RDKit          3D

 64 67  0  0  0  0  0  0  0  0999 V2000
   10.2841   43.7702   33.8144 C   0  0  0  0  0  0  0  0  0  0  0  0
   11.4086   43.5796   34.3640 O   0  0  0  0  0  0  0  0  0  0  0  0
    9.3637   42.7316   33.7062 O   0  0  0  0  0  0  0  0  0  0  0  0
    9.8842   41.2327   34.2842 P   0  0  0  0  0  5  0  0  0  0  0  0
   10.3698   41.4651   35.8737 O   0  0  0  0  0  1  0  0  0  0  0  0
    9.9741   45.1056   33.2292 C   0  0  2  0  0  0  0  0  0  0  0  0
   11.0585   46.0579   33.4832 N   0  0  0  0  0  0  0  0  0  0  0  0
    8.6160   45.6644   33.7049 C   0  0  0  0  0  0  0  0  0  0  0  0
    8.4457   45.6999   35.2101 C   0  0  0  0  0  0  0  0  0  0  0  0
    7.3449   45.1283   35.8648 O   0  0  0  0  0  0  0  0  0  0  0  0
    9.2895   46.3212   35.9073 O   0  0  0  0  0  0  0  0  0  0  0  0
    6.2700   44.4543   35.2147 C   0  0  0  0  0  0  0  0  0  0  0  0
    5.2148   44.0767   36.2268 C   0  0  0  0  0  0  0  0  0  0  0  0
    5.5199   43.3344   37.3997 C   0  0  0  0  0  0  0  0  0  0  0  0
    3.8908   44.5052   36.0129 C   0  0  0  0  0  0  0  0  0  0  0  0
    6.8460   42.8432   37.6632 N   0  0  0  0  0  4  0  0  0  0  0  0
    4.4993   43.0787   38.3342 C   0  0  0  0  0  0  0  0  0  0  0  0
    2.8908   44.2266   36.9453 C   0  0  0  0  0  0  0  0  0  0  0  0
    7.6078   42.3105   36.6507 O   0  0  0  0  0  1  0  0  0  0  0  0
    7.2532   42.7382   38.8387 O   0  0  0  0  0  0  0  0  0  0  0  0
    3.1955   43.5195   38.1061 C   0  0  0  0  0  0  0  0  0  0  0  0
    8.8068   40.1899   34.2090 O   0  0  0  0  0  0  0  0  0  0  0  0
   11.2358   40.7909   33.3668 O   0  0  0  0  0  0  0  0  0  0  0  0
   10.9139   40.6882   31.9941 C   0  0  0  0  0  0  0  0  0  0  0  0
   11.5255   39.3871   31.4363 C   0  0  0  0  0  0  0  0  0  0  0  0
   12.7486   39.0896   32.0821 O   0  0  0  0  0  0  0  0  0  0  0  0
   10.6121   38.1892   31.6461 C   0  0  0  0  0  0  0  0  0  0  0  0
   12.9372   37.6830   32.0301 C   0  0  0  0  0  0  0  0  0  0  0  0
    9.6148   38.0836   30.6537 O   0  0  0  0  0  0  0  0  0  0  0  0
   11.5793   37.0137   31.7014 C   0  0  0  0  0  0  0  0  0  0  0  0
   13.4906   37.2171   33.3242 N   0  0  0  0  0  0  0  0  0  0  0  0
   11.6217   36.3253   30.4725 O   0  0  0  0  0  0  0  0  0  0  0  0
   14.4763   36.3267   33.5731 C   0  0  0  0  0  0  0  0  0  0  0  0
   13.1181   37.6309   34.5694 C   0  0  0  0  0  0  0  0  0  0  0  0
   15.2065   35.6138   32.6740 N   0  0  0  0  0  0  0  0  0  0  0  0
   14.6735   36.2270   34.9185 C   0  0  0  0  0  0  0  0  0  0  0  0
   13.8228   37.0451   35.5787 N   0  0  0  0  0  0  0  0  0  0  0  0
   16.1638   34.7593   33.1546 C   0  0  0  0  0  0  0  0  0  0  0  0
   15.6518   35.3489   35.4131 C   0  0  0  0  0  0  0  0  0  0  0  0
   16.3794   34.6308   34.5041 N   0  0  0  0  0  0  0  0  0  0  0  0
   15.9006   35.1931   36.8090 N   0  0  0  0  0  0  0  0  0  0  0  0
    9.8980   44.9672   32.1276 H   0  0  0  0  0  0  0  0  0  0  0  0
   11.3113   46.0758   34.4974 H   0  0  0  0  0  0  0  0  0  0  0  0
   11.9081   45.7558   32.9519 H   0  0  0  0  0  0  0  0  0  0  0  0
    7.8198   45.0577   33.2299 H   0  0  0  0  0  0  0  0  0  0  0  0
    8.4934   46.6979   33.3153 H   0  0  0  0  0  0  0  0  0  0  0  0
    5.8383   45.1278   34.4423 H   0  0  0  0  0  0  0  0  0  0  0  0
    6.6398   43.5416   34.7020 H   0  0  0  0  0  0  0  0  0  0  0  0
    3.6292   45.0674   35.1248 H   0  0  0  0  0  0  0  0  0  0  0  0
    4.7110   42.5188   39.2365 H   0  0  0  0  0  0  0  0  0  0  0  0
    1.8779   44.5655   36.7696 H   0  0  0  0  0  0  0  0  0  0  0  0
    2.4186   43.3080   38.8296 H   0  0  0  0  0  0  0  0  0  0  0  0
    9.8236   40.7174   31.7578 H   0  0  0  0  0  0  0  0  0  0  0  0
   11.3805   41.5504   31.4714 H   0  0  0  0  0  0  0  0  0  0  0  0
   11.7288   39.5285   30.3502 H   0  0  0  0  0  0  0  0  0  0  0  0
   10.1137   38.2717   32.6379 H   0  0  0  0  0  0  0  0  0  0  0  0
   13.6724   37.4642   31.2240 H   0  0  0  0  0  0  0  0  0  0  0  0
   10.0534   38.1082   29.7638 H   0  0  0  0  0  0  0  0  0  0  0  0
   11.2646   36.3134   32.5107 H   0  0  0  0  0  0  0  0  0  0  0  0
   12.1552   35.5033   30.6316 H   0  0  0  0  0  0  0  0  0  0  0  0
   12.3362   38.3587   34.7451 H   0  0  0  0  0  0  0  0  0  0  0  0
   16.7573   34.1789   32.4618 H   0  0  0  0  0  0  0  0  0  0  0  0
   16.6366   34.5314   37.1415 H   0  0  0  0  0  0  0  0  0  0  0  0
   15.3533   35.7353   37.5139 H   0  0  0  0  0  0  0  0  0  0  0  0
  1  2  2  0
  1  3  1  0
  3  4  1  0
  4  5  1  0
  6  1  1  0
  7  6  1  0
  6  8  1  0
  8  9  1  0
  9 10  1  0
  9 11  2  0
 10 12  1  0
 12 13  1  0
 13 14  2  0
 15 13  1  0
 14 16  1  0
 14 17  1  0
 18 15  2  0
 16 19  1  0
 16 20  2  0
 17 21  2  0
 21 18  1  0
  4 22  2  0
  4 23  1  0
 24 23  1  0
 24 25  1  0
 25 26  1  0
 25 27  1  0
 26 28  1  0
 27 29  1  0
 27 30  1  0
 30 28  1  0
 28 31  1  0
 30 32  1  0
 33 31  1  0
 34 31  1  0
 35 33  2  0
 33 36  1  0
 37 34  2  0
 38 35  1  0
 36 39  2  0
 36 37  1  0
 40 38  2  0
 40 39  1  0
 39 41  1  0
  6 42  1  6
  7 43  1  0
  7 44  1  0
  8 45  1  0
  8 46  1  0
 12 47  1  0
 12 48  1  0
 15 49  1  0
 17 50  1  0
 18 51  1  0
 21 52  1  0
 24 53  1  0
 24 54  1  0
 25 55  1  0
 27 56  1  0
 28 57  1  0
 29 58  1  0
 30 59  1  0
 32 60  1  0
 34 61  1  0
 38 62  1  0
 41 63  1  0
 41 64  1  0
M  CHG  3   5  -1  16   1  19  -1
M  END
>  <EmbedRMS>  (480) 
0.08846644134225518

$$$$

     RDKit          3D

 64 67  0  0  0  0  0  0  0  0999 V2000
   10.2861   43.7718   33.8042 C   0  0  0  0  0  0  0  0  0  0  0  0
   11.4113   43.5869   34.3545 O   0  0  0  0  0  0  0  0  0  0  0  0
    9.3669   42.7311   33.7002 O   0  0  0  0  0  0  0  0  0  0  0  0
    9.8847   41.2346   34.2852 P   0  0  0  0  0  5  0  0  0  0  0  0
   10.3651   41.4711   35.8756 O   0  0  0  0  0  1  0  0  0  0  0  0
    9.9565   45.1117   33.2469 C   0  0  2  0  0  0  0  0  0  0  0  0
   11.0673   46.0363   33.4855 N   0  0  0  0  0  0  0  0  0  0  0  0
    8.6227   45.6579   33.8053 C   0  0  0  0  0  0  0  0  0  0  0  0
    8.6162   45.7682   35.3017 C   0  0  0  0  0  0  0  0  0  0  0  0
    8.3957   44.6218   36.0740 O   0  0  0  0  0  0  0  0  0  0  0  0
    8.8338   46.8830   35.8505 O   0  0  0  0  0  0  0  0  0  0  0  0
    8.3956   44.6282   37.5010 C   0  0  0  0  0  0  0  0  0  0  0  0
    7.1732   45.3292   38.0547 C   0  0  0  0  0  0  0  0  0  0  0  0
    7.2171   46.0537   39.2746 C   0  0  0  0  0  0  0  0  0  0  0  0
    5.9538   45.2415   37.3552 C   0  0  0  0  0  0  0  0  0  0  0  0
    8.3999   46.0839   40.0913 N   0  0  0  0  0  4  0  0  0  0  0  0
    6.0689   46.7413   39.7076 C   0  0  0  0  0  0  0  0  0  0  0  0
    4.8202   45.9153   37.8117 C   0  0  0  0  0  0  0  0  0  0  0  0
    9.1086   44.9283   40.3266 O   0  0  0  0  0  1  0  0  0  0  0  0
    8.6773   47.1052   40.7535 O   0  0  0  0  0  0  0  0  0  0  0  0
    4.8810   46.6739   38.9788 C   0  0  0  0  0  0  0  0  0  0  0  0
    8.8073   40.1916   34.2095 O   0  0  0  0  0  0  0  0  0  0  0  0
   11.2365   40.7903   33.3696 O   0  0  0  0  0  0  0  0  0  0  0  0
   10.9152   40.6897   31.9965 C   0  0  0  0  0  0  0  0  0  0  0  0
   11.5268   39.3899   31.4376 C   0  0  0  0  0  0  0  0  0  0  0  0
   12.7507   39.0917   32.0840 O   0  0  0  0  0  0  0  0  0  0  0  0
   10.6121   38.1916   31.6453 C   0  0  0  0  0  0  0  0  0  0  0  0
   12.9429   37.6853   32.0295 C   0  0  0  0  0  0  0  0  0  0  0  0
    9.6070   38.0858   30.6603 O   0  0  0  0  0  0  0  0  0  0  0  0
   11.5845   37.0186   31.6880 C   0  0  0  0  0  0  0  0  0  0  0  0
   13.4899   37.2163   33.3250 N   0  0  0  0  0  0  0  0  0  0  0  0
   11.6202   36.3063   30.4693 O   0  0  0  0  0  0  0  0  0  0  0  0
   14.4759   36.3263   33.5738 C   0  0  0  0  0  0  0  0  0  0  0  0
   13.1175   37.6307   34.5699 C   0  0  0  0  0  0  0  0  0  0  0  0
   15.2065   35.6139   32.6746 N   0  0  0  0  0  0  0  0  0  0  0  0
   14.6731   36.2267   34.9191 C   0  0  0  0  0  0  0  0  0  0  0  0
   13.8224   37.0450   35.5792 N   0  0  0  0  0  0  0  0  0  0  0  0
   16.1640   34.7596   33.1551 C   0  0  0  0  0  0  0  0  0  0  0  0
   15.6517   35.3489   35.4136 C   0  0  0  0  0  0  0  0  0  0  0  0
   16.3795   34.6310   34.5046 N   0  0  0  0  0  0  0  0  0  0  0  0
   15.9006   35.1931   36.8094 N   0  0  0  0  0  0  0  0  0  0  0  0
    9.8398   44.9889   32.1478 H   0  0  0  0  0  0  0  0  0  0  0  0
   10.8573   46.9420   33.0061 H   0  0  0  0  0  0  0  0  0  0  0  0
   11.1537   46.2385   34.5082 H   0  0  0  0  0  0  0  0  0  0  0  0
    7.7918   44.9875   33.4961 H   0  0  0  0  0  0  0  0  0  0  0  0
    8.4157   46.6545   33.3578 H   0  0  0  0  0  0  0  0  0  0  0  0
    8.3945   43.5781   37.8603 H   0  0  0  0  0  0  0  0  0  0  0  0
    9.3332   45.1126   37.8466 H   0  0  0  0  0  0  0  0  0  0  0  0
    5.8807   44.6613   36.4438 H   0  0  0  0  0  0  0  0  0  0  0  0
    6.0863   47.3090   40.6294 H   0  0  0  0  0  0  0  0  0  0  0  0
    3.8932   45.8514   37.2566 H   0  0  0  0  0  0  0  0  0  0  0  0
    4.0010   47.1979   39.3291 H   0  0  0  0  0  0  0  0  0  0  0  0
    9.8251   40.7189   31.7594 H   0  0  0  0  0  0  0  0  0  0  0  0
   11.3820   41.5527   31.4752 H   0  0  0  0  0  0  0  0  0  0  0  0
   11.7316   39.5341   30.3523 H   0  0  0  0  0  0  0  0  0  0  0  0
   10.1213   38.2681   32.6413 H   0  0  0  0  0  0  0  0  0  0  0  0
   13.6882   37.4709   31.2319 H   0  0  0  0  0  0  0  0  0  0  0  0
   10.0257   38.1752   29.7656 H   0  0  0  0  0  0  0  0  0  0  0  0
   11.2796   36.3123   32.4915 H   0  0  0  0  0  0  0  0  0  0  0  0
   11.9872   36.9100   29.7715 H   0  0  0  0  0  0  0  0  0  0  0  0
   12.3365   38.3596   34.7454 H   0  0  0  0  0  0  0  0  0  0  0  0
   16.7576   34.1794   32.4622 H   0  0  0  0  0  0  0  0  0  0  0  0
   16.6368   34.5316   37.1418 H   0  0  0  0  0  0  0  0  0  0  0  0
   15.3532   35.7351   37.5143 H   0  0  0  0  0  0  0  0  0  0  0  0
  1  2  2  0
  1  3  1  0
  3  4  1  0
  4  5  1  0
  6  1  1  0
  7  6  1  0
  6  8  1  0
  8  9  1  0
  9 10  1  0
  9 11  2  0
 10 12  1  0
 12 13  1  0
 13 14  2  0
 15 13  1  0
 14 16  1  0
 14 17  1  0
 18 15  2  0
 16 19  1  0
 16 20  2  0
 17 21  2  0
 21 18  1  0
  4 22  2  0
  4 23  1  0
 24 23  1  0
 24 25  1  0
 25 26  1  0
 25 27  1  0
 26 28  1  0
 27 29  1  0
 27 30  1  0
 30 28  1  0
 28 31  1  0
 30 32  1  0
 33 31  1  0
 34 31  1  0
 35 33  2  0
 33 36  1  0
 37 34  2  0
 38 35  1  0
 36 39  2  0
 36 37  1  0
 40 38  2  0
 40 39  1  0
 39 41  1  0
  6 42  1  6
  7 43  1  0
  7 44  1  0
  8 45  1  0
  8 46  1  0
 12 47  1  0
 12 48  1  0
 15 49  1  0
 17 50  1  0
 18 51  1  0
 21 52  1  0
 24 53  1  0
 24 54  1  0
 25 55  1  0
 27 56  1  0
 28 57  1  0
 29 58  1  0
 30 59  1  0
 32 60  1  0
 34 61  1  0
 38 62  1  0
 41 63  1  0
 41 64  1  0
M  CHG  3   5  -1  16   1  19  -1
M  END
>  <EmbedRMS>  (481) 
0.08686826160707846

$$$$

     RDKit          3D

 64 67  0  0  0  0  0  0  0  0999 V2000
   10.2862   43.7682   33.8089 C   0  0  0  0  0  0  0  0  0  0  0  0
   11.4097   43.5785   34.3608 O   0  0  0  0  0  0  0  0  0  0  0  0
    9.3641   42.7308   33.7039 O   0  0  0  0  0  0  0  0  0  0  0  0
    9.8838   41.2330   34.2846 P   0  0  0  0  0  5  0  0  0  0  0  0
   10.3696   41.4685   35.8733 O   0  0  0  0  0  1  0  0  0  0  0  0
    9.9709   45.1078   33.2345 C   0  0  2  0  0  0  0  0  0  0  0  0
   11.0588   46.0566   33.4860 N   0  0  0  0  0  0  0  0  0  0  0  0
    8.6227   45.6703   33.7357 C   0  0  0  0  0  0  0  0  0  0  0  0
    8.4103   45.5570   35.2199 C   0  0  0  0  0  0  0  0  0  0  0  0
    7.1813   45.0858   35.6935 O   0  0  0  0  0  0  0  0  0  0  0  0
    9.3038   45.9367   36.0234 O   0  0  0  0  0  0  0  0  0  0  0  0
    6.9070   44.8389   37.0714 C   0  0  0  0  0  0  0  0  0  0  0  0
    7.4673   43.4993   37.4900 C   0  0  0  0  0  0  0  0  0  0  0  0
    8.3014   43.3306   38.6273 C   0  0  0  0  0  0  0  0  0  0  0  0
    7.0406   42.3614   36.7809 C   0  0  0  0  0  0  0  0  0  0  0  0
    8.7758   44.4455   39.3965 N   0  0  0  0  0  4  0  0  0  0  0  0
    8.6660   42.0333   39.0260 C   0  0  0  0  0  0  0  0  0  0  0  0
    7.4214   41.0820   37.1873 C   0  0  0  0  0  0  0  0  0  0  0  0
    8.8285   44.3517   40.7681 O   0  0  0  0  0  1  0  0  0  0  0  0
    9.3786   45.3824   38.8350 O   0  0  0  0  0  0  0  0  0  0  0  0
    8.2311   40.9180   38.3091 C   0  0  0  0  0  0  0  0  0  0  0  0
    8.8070   40.1897   34.2096 O   0  0  0  0  0  0  0  0  0  0  0  0
   11.2356   40.7903   33.3676 O   0  0  0  0  0  0  0  0  0  0  0  0
   10.9140   40.6881   31.9948 C   0  0  0  0  0  0  0  0  0  0  0  0
   11.5255   39.3872   31.4366 C   0  0  0  0  0  0  0  0  0  0  0  0
   12.7486   39.0896   32.0822 O   0  0  0  0  0  0  0  0  0  0  0  0
   10.6120   38.1892   31.6462 C   0  0  0  0  0  0  0  0  0  0  0  0
   12.9372   37.6830   32.0302 C   0  0  0  0  0  0  0  0  0  0  0  0
    9.6148   38.0837   30.6538 O   0  0  0  0  0  0  0  0  0  0  0  0
   11.5793   37.0137   31.7014 C   0  0  0  0  0  0  0  0  0  0  0  0
   13.4906   37.2171   33.3243 N   0  0  0  0  0  0  0  0  0  0  0  0
   11.6217   36.3253   30.4725 O   0  0  0  0  0  0  0  0  0  0  0  0
   14.4762   36.3267   33.5731 C   0  0  0  0  0  0  0  0  0  0  0  0
   13.1181   37.6309   34.5695 C   0  0  0  0  0  0  0  0  0  0  0  0
   15.2065   35.6138   32.6740 N   0  0  0  0  0  0  0  0  0  0  0  0
   14.6735   36.2270   34.9185 C   0  0  0  0  0  0  0  0  0  0  0  0
   13.8228   37.0451   35.5788 N   0  0  0  0  0  0  0  0  0  0  0  0
   16.1638   34.7594   33.1547 C   0  0  0  0  0  0  0  0  0  0  0  0
   15.6518   35.3490   35.4132 C   0  0  0  0  0  0  0  0  0  0  0  0
   16.3794   34.6309   34.5042 N   0  0  0  0  0  0  0  0  0  0  0  0
   15.9005   35.1931   36.8090 N   0  0  0  0  0  0  0  0  0  0  0  0
    9.8822   44.9803   32.1328 H   0  0  0  0  0  0  0  0  0  0  0  0
   11.9153   45.7399   32.9747 H   0  0  0  0  0  0  0  0  0  0  0  0
   11.2902   46.0959   34.5047 H   0  0  0  0  0  0  0  0  0  0  0  0
    7.8019   45.1223   33.2231 H   0  0  0  0  0  0  0  0  0  0  0  0
    8.5319   46.7377   33.4408 H   0  0  0  0  0  0  0  0  0  0  0  0
    5.8050   44.8031   37.2028 H   0  0  0  0  0  0  0  0  0  0  0  0
    7.2612   45.6859   37.6908 H   0  0  0  0  0  0  0  0  0  0  0  0
    6.3924   42.4652   35.9191 H   0  0  0  0  0  0  0  0  0  0  0  0
    9.3009   41.8871   39.8909 H   0  0  0  0  0  0  0  0  0  0  0  0
    7.0827   40.2156   36.6341 H   0  0  0  0  0  0  0  0  0  0  0  0
    8.5246   39.9247   38.6232 H   0  0  0  0  0  0  0  0  0  0  0  0
    9.8238   40.7174   31.7582 H   0  0  0  0  0  0  0  0  0  0  0  0
   11.3807   41.5505   31.4724 H   0  0  0  0  0  0  0  0  0  0  0  0
   11.7286   39.5288   30.3505 H   0  0  0  0  0  0  0  0  0  0  0  0
   10.1136   38.2717   32.6380 H   0  0  0  0  0  0  0  0  0  0  0  0
   13.6724   37.4641   31.2241 H   0  0  0  0  0  0  0  0  0  0  0  0
   10.0534   38.1083   29.7639 H   0  0  0  0  0  0  0  0  0  0  0  0
   11.2646   36.3135   32.5107 H   0  0  0  0  0  0  0  0  0  0  0  0
   12.1552   35.5034   30.6316 H   0  0  0  0  0  0  0  0  0  0  0  0
   12.3360   38.3587   34.7452 H   0  0  0  0  0  0  0  0  0  0  0  0
   16.7573   34.1789   32.4618 H   0  0  0  0  0  0  0  0  0  0  0  0
   16.6365   34.5314   37.1415 H   0  0  0  0  0  0  0  0  0  0  0  0
   15.3532   35.7353   37.5139 H   0  0  0  0  0  0  0  0  0  0  0  0
  1  2  2  0
  1  3  1  0
  3  4  1  0
  4  5  1  0
  6  1  1  0
  7  6  1  0
  6  8  1  0
  8  9  1  0
  9 10  1  0
  9 11  2  0
 10 12  1  0
 12 13  1  0
 13 14  2  0
 15 13  1  0
 14 16  1  0
 14 17  1  0
 18 15  2  0
 16 19  1  0
 16 20  2  0
 17 21  2  0
 21 18  1  0
  4 22  2  0
  4 23  1  0
 24 23  1  0
 24 25  1  0
 25 26  1  0
 25 27  1  0
 26 28  1  0
 27 29  1  0
 27 30  1  0
 30 28  1  0
 28 31  1  0
 30 32  1  0
 33 31  1  0
 34 31  1  0
 35 33  2  0
 33 36  1  0
 37 34  2  0
 38 35  1  0
 36 39  2  0
 36 37  1  0
 40 38  2  0
 40 39  1  0
 39 41  1  0
  6 42  1  6
  7 43  1  0
  7 44  1  0
  8 45  1  0
  8 46  1  0
 12 47  1  0
 12 48  1  0
 15 49  1  0
 17 50  1  0
 18 51  1  0
 21 52  1  0
 24 53  1  0
 24 54  1  0
 25 55  1  0
 27 56  1  0
 28 57  1  0
 29 58  1  0
 30 59  1  0
 32 60  1  0
 34 61  1  0
 38 62  1  0
 41 63  1  0
 41 64  1  0
M  CHG  3   5  -1  16   1  19  -1
M  END
>  <EmbedRMS>  (482) 
0.08815455220407974

$$$$

     RDKit          3D

 64 67  0  0  0  0  0  0  0  0999 V2000
   10.2863   43.7710   33.8101 C   0  0  0  0  0  0  0  0  0  0  0  0
   11.4102   43.5818   34.3617 O   0  0  0  0  0  0  0  0  0  0  0  0
    9.3668   42.7309   33.7023 O   0  0  0  0  0  0  0  0  0  0  0  0
    9.8847   41.2330   34.2845 P   0  0  0  0  0  5  0  0  0  0  0  0
   10.3648   41.4677   35.8753 O   0  0  0  0  0  1  0  0  0  0  0  0
    9.9612   45.1119   33.2468 C   0  0  2  0  0  0  0  0  0  0  0  0
   11.0650   46.0485   33.4748 N   0  0  0  0  0  0  0  0  0  0  0  0
    8.6637   45.6566   33.8677 C   0  0  0  0  0  0  0  0  0  0  0  0
    8.2902   46.9682   33.2518 C   0  0  0  0  0  0  0  0  0  0  0  0
    7.7644   46.9904   31.9557 O   0  0  0  0  0  0  0  0  0  0  0  0
    8.4967   48.0397   33.8838 O   0  0  0  0  0  0  0  0  0  0  0  0
    7.5560   48.1909   31.2144 C   0  0  0  0  0  0  0  0  0  0  0  0
    8.8795   48.8222   30.8428 C   0  0  0  0  0  0  0  0  0  0  0  0
    9.1677   50.1954   31.0618 C   0  0  0  0  0  0  0  0  0  0  0  0
    9.8249   48.0237   30.1728 C   0  0  0  0  0  0  0  0  0  0  0  0
    8.2556   51.0642   31.7491 N   0  0  0  0  0  4  0  0  0  0  0  0
   10.3804   50.7273   30.5921 C   0  0  0  0  0  0  0  0  0  0  0  0
   11.0331   48.5657   29.7324 C   0  0  0  0  0  0  0  0  0  0  0  0
    8.0597   52.3449   31.2867 O   0  0  0  0  0  1  0  0  0  0  0  0
    7.8578   50.7715   32.8952 O   0  0  0  0  0  0  0  0  0  0  0  0
   11.3086   49.9161   29.9378 C   0  0  0  0  0  0  0  0  0  0  0  0
    8.8073   40.1902   34.2076 O   0  0  0  0  0  0  0  0  0  0  0  0
   11.2377   40.7904   33.3696 O   0  0  0  0  0  0  0  0  0  0  0  0
   10.9188   40.6905   31.9960 C   0  0  0  0  0  0  0  0  0  0  0  0
   11.5174   39.3823   31.4412 C   0  0  0  0  0  0  0  0  0  0  0  0
   12.7493   39.0892   32.0756 O   0  0  0  0  0  0  0  0  0  0  0  0
   10.6035   38.1899   31.6659 C   0  0  0  0  0  0  0  0  0  0  0  0
   12.9400   37.6833   32.0276 C   0  0  0  0  0  0  0  0  0  0  0  0
    9.6376   38.0784   30.6473 O   0  0  0  0  0  0  0  0  0  0  0  0
   11.5803   37.0203   31.6936 C   0  0  0  0  0  0  0  0  0  0  0  0
   13.4901   37.2176   33.3238 N   0  0  0  0  0  0  0  0  0  0  0  0
   11.6118   36.3194   30.4678 O   0  0  0  0  0  0  0  0  0  0  0  0
   14.4758   36.3271   33.5731 C   0  0  0  0  0  0  0  0  0  0  0  0
   13.1175   37.6316   34.5688 C   0  0  0  0  0  0  0  0  0  0  0  0
   15.2063   35.6141   32.6742 N   0  0  0  0  0  0  0  0  0  0  0  0
   14.6729   36.2274   34.9185 C   0  0  0  0  0  0  0  0  0  0  0  0
   13.8221   37.0457   35.5784 N   0  0  0  0  0  0  0  0  0  0  0  0
   16.1637   34.7596   33.1549 C   0  0  0  0  0  0  0  0  0  0  0  0
   15.6514   35.3493   35.4132 C   0  0  0  0  0  0  0  0  0  0  0  0
   16.3791   34.6312   34.5043 N   0  0  0  0  0  0  0  0  0  0  0  0
   15.9002   35.1935   36.8091 N   0  0  0  0  0  0  0  0  0  0  0  0
    9.8129   44.9940   32.1502 H   0  0  0  0  0  0  0  0  0  0  0  0
   11.2752   46.1185   34.4980 H   0  0  0  0  0  0  0  0  0  0  0  0
   11.9214   45.7049   32.9810 H   0  0  0  0  0  0  0  0  0  0  0  0
    8.7857   45.7753   34.9673 H   0  0  0  0  0  0  0  0  0  0  0  0
    7.8312   44.9411   33.6922 H   0  0  0  0  0  0  0  0  0  0  0  0
    7.0205   47.9332   30.2766 H   0  0  0  0  0  0  0  0  0  0  0  0
    6.8865   48.8650   31.7822 H   0  0  0  0  0  0  0  0  0  0  0  0
    9.6206   46.9769   29.9827 H   0  0  0  0  0  0  0  0  0  0  0  0
   10.6145   51.7726   30.7503 H   0  0  0  0  0  0  0  0  0  0  0  0
   11.7524   47.9390   29.2211 H   0  0  0  0  0  0  0  0  0  0  0  0
   12.2436   50.3360   29.5898 H   0  0  0  0  0  0  0  0  0  0  0  0
    9.8310   40.7401   31.7556 H   0  0  0  0  0  0  0  0  0  0  0  0
   11.4002   41.5454   31.4747 H   0  0  0  0  0  0  0  0  0  0  0  0
   11.6989   39.5091   30.3489 H   0  0  0  0  0  0  0  0  0  0  0  0
   10.1129   38.2588   32.6662 H   0  0  0  0  0  0  0  0  0  0  0  0
   13.6800   37.4628   31.2266 H   0  0  0  0  0  0  0  0  0  0  0  0
    8.8951   38.6906   30.8890 H   0  0  0  0  0  0  0  0  0  0  0  0
   11.2830   36.3058   32.4926 H   0  0  0  0  0  0  0  0  0  0  0  0
   11.8861   36.9592   29.7592 H   0  0  0  0  0  0  0  0  0  0  0  0
   12.3357   38.3597   34.7442 H   0  0  0  0  0  0  0  0  0  0  0  0
   16.7572   34.1792   32.4621 H   0  0  0  0  0  0  0  0  0  0  0  0
   16.6363   34.5318   37.1414 H   0  0  0  0  0  0  0  0  0  0  0  0
   15.3529   35.7356   37.5140 H   0  0  0  0  0  0  0  0  0  0  0  0
  1  2  2  0
  1  3  1  0
  3  4  1  0
  4  5  1  0
  6  1  1  0
  7  6  1  0
  6  8  1  0
  8  9  1  0
  9 10  1  0
  9 11  2  0
 10 12  1  0
 12 13  1  0
 13 14  2  0
 15 13  1  0
 14 16  1  0
 14 17  1  0
 18 15  2  0
 16 19  1  0
 16 20  2  0
 17 21  2  0
 21 18  1  0
  4 22  2  0
  4 23  1  0
 24 23  1  0
 24 25  1  0
 25 26  1  0
 25 27  1  0
 26 28  1  0
 27 29  1  0
 27 30  1  0
 30 28  1  0
 28 31  1  0
 30 32  1  0
 33 31  1  0
 34 31  1  0
 35 33  2  0
 33 36  1  0
 37 34  2  0
 38 35  1  0
 36 39  2  0
 36 37  1  0
 40 38  2  0
 40 39  1  0
 39 41  1  0
  6 42  1  6
  7 43  1  0
  7 44  1  0
  8 45  1  0
  8 46  1  0
 12 47  1  0
 12 48  1  0
 15 49  1  0
 17 50  1  0
 18 51  1  0
 21 52  1  0
 24 53  1  0
 24 54  1  0
 25 55  1  0
 27 56  1  0
 28 57  1  0
 29 58  1  0
 30 59  1  0
 32 60  1  0
 34 61  1  0
 38 62  1  0
 41 63  1  0
 41 64  1  0
M  CHG  3   5  -1  16   1  19  -1
M  END
>  <EmbedRMS>  (483) 
0.0888444650365575

$$$$

     RDKit          3D

 64 67  0  0  0  0  0  0  0  0999 V2000
   10.2807   43.7749   33.8067 C   0  0  0  0  0  0  0  0  0  0  0  0
   11.4033   43.5906   34.3635 O   0  0  0  0  0  0  0  0  0  0  0  0
    9.3680   42.7292   33.6954 O   0  0  0  0  0  0  0  0  0  0  0  0
    9.8865   41.2338   34.2833 P   0  0  0  0  0  5  0  0  0  0  0  0
   10.3658   41.4711   35.8738 O   0  0  0  0  0  1  0  0  0  0  0  0
    9.9472   45.1225   33.2584 C   0  0  2  0  0  0  0  0  0  0  0  0
   11.0810   46.0239   33.4717 N   0  0  0  0  0  0  0  0  0  0  0  0
    8.6931   45.6996   33.9494 C   0  0  0  0  0  0  0  0  0  0  0  0
    7.4332   45.0531   33.4597 C   0  0  0  0  0  0  0  0  0  0  0  0
    6.8537   44.0194   34.2001 O   0  0  0  0  0  0  0  0  0  0  0  0
    6.9174   45.4328   32.3729 O   0  0  0  0  0  0  0  0  0  0  0  0
    5.6301   43.3975   33.8233 C   0  0  0  0  0  0  0  0  0  0  0  0
    5.3337   42.2630   34.7677 C   0  0  0  0  0  0  0  0  0  0  0  0
    4.7001   42.4656   36.0225 C   0  0  0  0  0  0  0  0  0  0  0  0
    5.7048   40.9613   34.3863 C   0  0  0  0  0  0  0  0  0  0  0  0
    4.3287   43.7776   36.4836 N   0  0  0  0  0  4  0  0  0  0  0  0
    4.4203   41.3504   36.8343 C   0  0  0  0  0  0  0  0  0  0  0  0
    5.4338   39.8716   35.2143 C   0  0  0  0  0  0  0  0  0  0  0  0
    5.1606   44.8542   36.2824 O   0  0  0  0  0  1  0  0  0  0  0  0
    3.3299   43.9222   37.2187 O   0  0  0  0  0  0  0  0  0  0  0  0
    4.7876   40.0651   36.4333 C   0  0  0  0  0  0  0  0  0  0  0  0
    8.8122   40.1882   34.2087 O   0  0  0  0  0  0  0  0  0  0  0  0
   11.2382   40.7904   33.3677 O   0  0  0  0  0  0  0  0  0  0  0  0
   10.9157   40.6882   31.9948 C   0  0  0  0  0  0  0  0  0  0  0  0
   11.5261   39.3870   31.4364 C   0  0  0  0  0  0  0  0  0  0  0  0
   12.7492   39.0892   32.0818 O   0  0  0  0  0  0  0  0  0  0  0  0
   10.6121   38.1894   31.6463 C   0  0  0  0  0  0  0  0  0  0  0  0
   12.9372   37.6826   32.0301 C   0  0  0  0  0  0  0  0  0  0  0  0
    9.6148   38.0840   30.6540 O   0  0  0  0  0  0  0  0  0  0  0  0
   11.5791   37.0137   31.7015 C   0  0  0  0  0  0  0  0  0  0  0  0
   13.4905   37.2169   33.3243 N   0  0  0  0  0  0  0  0  0  0  0  0
   11.6214   36.3253   30.4726 O   0  0  0  0  0  0  0  0  0  0  0  0
   14.4762   36.3266   33.5731 C   0  0  0  0  0  0  0  0  0  0  0  0
   13.1180   37.6308   34.5695 C   0  0  0  0  0  0  0  0  0  0  0  0
   15.2065   35.6137   32.6740 N   0  0  0  0  0  0  0  0  0  0  0  0
   14.6735   36.2269   34.9185 C   0  0  0  0  0  0  0  0  0  0  0  0
   13.8228   37.0450   35.5788 N   0  0  0  0  0  0  0  0  0  0  0  0
   16.1639   34.7593   33.1547 C   0  0  0  0  0  0  0  0  0  0  0  0
   15.6519   35.3489   35.4132 C   0  0  0  0  0  0  0  0  0  0  0  0
   16.3795   34.6308   34.5041 N   0  0  0  0  0  0  0  0  0  0  0  0
   15.9007   35.1930   36.8090 N   0  0  0  0  0  0  0  0  0  0  0  0
    9.7617   45.0275   32.1639 H   0  0  0  0  0  0  0  0  0  0  0  0
   11.8906   45.6771   32.9057 H   0  0  0  0  0  0  0  0  0  0  0  0
   10.8450   46.9583   33.0646 H   0  0  0  0  0  0  0  0  0  0  0  0
    8.7714   45.5807   35.0525 H   0  0  0  0  0  0  0  0  0  0  0  0
    8.6161   46.7895   33.7438 H   0  0  0  0  0  0  0  0  0  0  0  0
    5.7125   43.0195   32.7801 H   0  0  0  0  0  0  0  0  0  0  0  0
    4.8034   44.1397   33.8359 H   0  0  0  0  0  0  0  0  0  0  0  0
    6.1990   40.7869   33.4384 H   0  0  0  0  0  0  0  0  0  0  0  0
    3.9328   41.4794   37.7924 H   0  0  0  0  0  0  0  0  0  0  0  0
    5.7221   38.8745   34.9074 H   0  0  0  0  0  0  0  0  0  0  0  0
    4.5754   39.2178   37.0726 H   0  0  0  0  0  0  0  0  0  0  0  0
    9.8254   40.7181   31.7582 H   0  0  0  0  0  0  0  0  0  0  0  0
   11.3828   41.5502   31.4722 H   0  0  0  0  0  0  0  0  0  0  0  0
   11.7290   39.5285   30.3503 H   0  0  0  0  0  0  0  0  0  0  0  0
   10.1138   38.2721   32.6381 H   0  0  0  0  0  0  0  0  0  0  0  0
   13.6724   37.4634   31.2240 H   0  0  0  0  0  0  0  0  0  0  0  0
   10.0533   38.1084   29.7640 H   0  0  0  0  0  0  0  0  0  0  0  0
   11.2643   36.3135   32.5108 H   0  0  0  0  0  0  0  0  0  0  0  0
   12.1546   35.5032   30.6316 H   0  0  0  0  0  0  0  0  0  0  0  0
   12.3360   38.3585   34.7451 H   0  0  0  0  0  0  0  0  0  0  0  0
   16.7573   34.1788   32.4618 H   0  0  0  0  0  0  0  0  0  0  0  0
   16.6367   34.5312   37.1413 H   0  0  0  0  0  0  0  0  0  0  0  0
   15.3534   35.7351   37.5140 H   0  0  0  0  0  0  0  0  0  0  0  0
  1  2  2  0
  1  3  1  0
  3  4  1  0
  4  5  1  0
  6  1  1  0
  7  6  1  0
  6  8  1  0
  8  9  1  0
  9 10  1  0
  9 11  2  0
 10 12  1  0
 12 13  1  0
 13 14  2  0
 15 13  1  0
 14 16  1  0
 14 17  1  0
 18 15  2  0
 16 19  1  0
 16 20  2  0
 17 21  2  0
 21 18  1  0
  4 22  2  0
  4 23  1  0
 24 23  1  0
 24 25  1  0
 25 26  1  0
 25 27  1  0
 26 28  1  0
 27 29  1  0
 27 30  1  0
 30 28  1  0
 28 31  1  0
 30 32  1  0
 33 31  1  0
 34 31  1  0
 35 33  2  0
 33 36  1  0
 37 34  2  0
 38 35  1  0
 36 39  2  0
 36 37  1  0
 40 38  2  0
 40 39  1  0
 39 41  1  0
  6 42  1  6
  7 43  1  0
  7 44  1  0
  8 45  1  0
  8 46  1  0
 12 47  1  0
 12 48  1  0
 15 49  1  0
 17 50  1  0
 18 51  1  0
 21 52  1  0
 24 53  1  0
 24 54  1  0
 25 55  1  0
 27 56  1  0
 28 57  1  0
 29 58  1  0
 30 59  1  0
 32 60  1  0
 34 61  1  0
 38 62  1  0
 41 63  1  0
 41 64  1  0
M  CHG  3   5  -1  16   1  19  -1
M  END
>  <EmbedRMS>  (484) 
0.08791077769971883

$$$$

     RDKit          3D

 64 67  0  0  0  0  0  0  0  0999 V2000
   10.2869   43.7706   33.8006 C   0  0  0  0  0  0  0  0  0  0  0  0
   11.4095   43.5863   34.3566 O   0  0  0  0  0  0  0  0  0  0  0  0
    9.3672   42.7306   33.6979 O   0  0  0  0  0  0  0  0  0  0  0  0
    9.8855   41.2343   34.2835 P   0  0  0  0  0  5  0  0  0  0  0  0
   10.3662   41.4708   35.8737 O   0  0  0  0  0  1  0  0  0  0  0  0
    9.9514   45.1165   33.2561 C   0  0  2  0  0  0  0  0  0  0  0  0
   11.0716   46.0325   33.4798 N   0  0  0  0  0  0  0  0  0  0  0  0
    8.6621   45.6666   33.9024 C   0  0  0  0  0  0  0  0  0  0  0  0
    8.7721   45.7449   35.3959 C   0  0  0  0  0  0  0  0  0  0  0  0
    9.5386   46.7594   35.9785 O   0  0  0  0  0  0  0  0  0  0  0  0
    8.2230   44.8621   36.1101 O   0  0  0  0  0  0  0  0  0  0  0  0
    9.9750   46.7166   37.3347 C   0  0  0  0  0  0  0  0  0  0  0  0
   11.0536   45.6691   37.4887 C   0  0  0  0  0  0  0  0  0  0  0  0
   10.8424   44.4429   38.1698 C   0  0  0  0  0  0  0  0  0  0  0  0
   12.2721   45.8791   36.8188 C   0  0  0  0  0  0  0  0  0  0  0  0
    9.6370   44.1866   38.9041 N   0  0  0  0  0  4  0  0  0  0  0  0
   11.8426   43.4559   38.1371 C   0  0  0  0  0  0  0  0  0  0  0  0
   13.2612   44.8944   36.8119 C   0  0  0  0  0  0  0  0  0  0  0  0
    9.2410   45.0567   39.8933 O   0  0  0  0  0  1  0  0  0  0  0  0
    9.0929   43.0653   38.8335 O   0  0  0  0  0  0  0  0  0  0  0  0
   13.0439   43.6819   37.4638 C   0  0  0  0  0  0  0  0  0  0  0  0
    8.8078   40.1915   34.2090 O   0  0  0  0  0  0  0  0  0  0  0  0
   11.2368   40.7901   33.3665 O   0  0  0  0  0  0  0  0  0  0  0  0
   10.9137   40.6844   31.9937 C   0  0  0  0  0  0  0  0  0  0  0  0
   11.5175   39.3774   31.4397 C   0  0  0  0  0  0  0  0  0  0  0  0
   12.7478   39.0870   32.0757 O   0  0  0  0  0  0  0  0  0  0  0  0
   10.6069   38.1852   31.6658 C   0  0  0  0  0  0  0  0  0  0  0  0
   12.9372   37.6812   32.0291 C   0  0  0  0  0  0  0  0  0  0  0  0
    9.6404   38.0883   30.6476 O   0  0  0  0  0  0  0  0  0  0  0  0
   11.5789   37.0135   31.7046 C   0  0  0  0  0  0  0  0  0  0  0  0
   13.4915   37.2183   33.3240 N   0  0  0  0  0  0  0  0  0  0  0  0
   11.6125   36.3389   30.4674 O   0  0  0  0  0  0  0  0  0  0  0  0
   14.4765   36.3272   33.5731 C   0  0  0  0  0  0  0  0  0  0  0  0
   13.1185   37.6319   34.5691 C   0  0  0  0  0  0  0  0  0  0  0  0
   15.2066   35.6139   32.6741 N   0  0  0  0  0  0  0  0  0  0  0  0
   14.6735   36.2274   34.9185 C   0  0  0  0  0  0  0  0  0  0  0  0
   13.8228   37.0457   35.5786 N   0  0  0  0  0  0  0  0  0  0  0  0
   16.1637   34.7593   33.1548 C   0  0  0  0  0  0  0  0  0  0  0  0
   15.6517   35.3491   35.4132 C   0  0  0  0  0  0  0  0  0  0  0  0
   16.3792   34.6309   34.5043 N   0  0  0  0  0  0  0  0  0  0  0  0
   15.9004   35.1933   36.8091 N   0  0  0  0  0  0  0  0  0  0  0  0
    9.7772   45.0143   32.1614 H   0  0  0  0  0  0  0  0  0  0  0  0
   11.8837   45.7095   32.9039 H   0  0  0  0  0  0  0  0  0  0  0  0
   10.8140   46.9715   33.0976 H   0  0  0  0  0  0  0  0  0  0  0  0
    7.8018   45.0183   33.6249 H   0  0  0  0  0  0  0  0  0  0  0  0
    8.4460   46.6806   33.5028 H   0  0  0  0  0  0  0  0  0  0  0  0
    9.1029   46.5529   37.9962 H   0  0  0  0  0  0  0  0  0  0  0  0
   10.3983   47.7081   37.6009 H   0  0  0  0  0  0  0  0  0  0  0  0
   12.4461   46.8017   36.2783 H   0  0  0  0  0  0  0  0  0  0  0  0
   11.6953   42.5133   38.6491 H   0  0  0  0  0  0  0  0  0  0  0  0
   14.1916   45.0663   36.2864 H   0  0  0  0  0  0  0  0  0  0  0  0
   13.8084   42.9159   37.4497 H   0  0  0  0  0  0  0  0  0  0  0  0
    9.8235   40.7190   31.7574 H   0  0  0  0  0  0  0  0  0  0  0  0
   11.3854   41.5416   31.4674 H   0  0  0  0  0  0  0  0  0  0  0  0
   11.7006   39.5021   30.3473 H   0  0  0  0  0  0  0  0  0  0  0  0
   10.1097   38.2751   32.6607 H   0  0  0  0  0  0  0  0  0  0  0  0
   13.6714   37.4592   31.2228 H   0  0  0  0  0  0  0  0  0  0  0  0
    9.0033   37.3837   30.9351 H   0  0  0  0  0  0  0  0  0  0  0  0
   11.2706   36.3049   32.5089 H   0  0  0  0  0  0  0  0  0  0  0  0
   12.1443   35.5137   30.6141 H   0  0  0  0  0  0  0  0  0  0  0  0
   12.3364   38.3595   34.7445 H   0  0  0  0  0  0  0  0  0  0  0  0
   16.7570   34.1787   32.4620 H   0  0  0  0  0  0  0  0  0  0  0  0
   15.3532   35.7356   37.5139 H   0  0  0  0  0  0  0  0  0  0  0  0
   16.6362   34.5314   37.1416 H   0  0  0  0  0  0  0  0  0  0  0  0
  1  2  2  0
  1  3  1  0
  3  4  1  0
  4  5  1  0
  6  1  1  0
  7  6  1  0
  6  8  1  0
  8  9  1  0
  9 10  1  0
  9 11  2  0
 10 12  1  0
 12 13  1  0
 13 14  2  0
 15 13  1  0
 14 16  1  0
 14 17  1  0
 18 15  2  0
 16 19  1  0
 16 20  2  0
 17 21  2  0
 21 18  1  0
  4 22  2  0
  4 23  1  0
 24 23  1  0
 24 25  1  0
 25 26  1  0
 25 27  1  0
 26 28  1  0
 27 29  1  0
 27 30  1  0
 30 28  1  0
 28 31  1  0
 30 32  1  0
 33 31  1  0
 34 31  1  0
 35 33  2  0
 33 36  1  0
 37 34  2  0
 38 35  1  0
 36 39  2  0
 36 37  1  0
 40 38  2  0
 40 39  1  0
 39 41  1  0
  6 42  1  6
  7 43  1  0
  7 44  1  0
  8 45  1  0
  8 46  1  0
 12 47  1  0
 12 48  1  0
 15 49  1  0
 17 50  1  0
 18 51  1  0
 21 52  1  0
 24 53  1  0
 24 54  1  0
 25 55  1  0
 27 56  1  0
 28 57  1  0
 29 58  1  0
 30 59  1  0
 32 60  1  0
 34 61  1  0
 38 62  1  0
 41 63  1  0
 41 64  1  0
M  CHG  3   5  -1  16   1  19  -1
M  END
>  <EmbedRMS>  (485) 
0.08873195219620253

$$$$

     RDKit          3D

 64 67  0  0  0  0  0  0  0  0999 V2000
   10.2863   43.7710   33.8098 C   0  0  0  0  0  0  0  0  0  0  0  0
   11.4101   43.5818   34.3616 O   0  0  0  0  0  0  0  0  0  0  0  0
    9.3669   42.7308   33.7019 O   0  0  0  0  0  0  0  0  0  0  0  0
    9.8847   41.2330   34.2845 P   0  0  0  0  0  5  0  0  0  0  0  0
   10.3648   41.4678   35.8752 O   0  0  0  0  0  1  0  0  0  0  0  0
    9.9605   45.1126   33.2476 C   0  0  2  0  0  0  0  0  0  0  0  0
   11.0656   46.0479   33.4748 N   0  0  0  0  0  0  0  0  0  0  0  0
    8.6650   45.6566   33.8729 C   0  0  0  0  0  0  0  0  0  0  0  0
    8.2787   46.9662   33.2587 C   0  0  0  0  0  0  0  0  0  0  0  0
    8.7614   48.1538   33.8148 O   0  0  0  0  0  0  0  0  0  0  0  0
    7.5570   46.9858   32.2243 O   0  0  0  0  0  0  0  0  0  0  0  0
    8.4629   49.4370   33.2705 C   0  0  0  0  0  0  0  0  0  0  0  0
    9.1135   50.5335   34.0831 C   0  0  0  0  0  0  0  0  0  0  0  0
    9.4798   51.7738   33.4958 C   0  0  0  0  0  0  0  0  0  0  0  0
    9.3376   50.3376   35.4606 C   0  0  0  0  0  0  0  0  0  0  0  0
    9.1817   52.0754   32.1213 N   0  0  0  0  0  4  0  0  0  0  0  0
   10.1354   52.7395   34.2811 C   0  0  0  0  0  0  0  0  0  0  0  0
    9.9725   51.3166   36.2261 C   0  0  0  0  0  0  0  0  0  0  0  0
    7.9587   51.7425   31.5860 O   0  0  0  0  0  1  0  0  0  0  0  0
    9.9483   52.8059   31.4600 O   0  0  0  0  0  0  0  0  0  0  0  0
   10.3814   52.5100   35.6351 C   0  0  0  0  0  0  0  0  0  0  0  0
    8.8073   40.1902   34.2076 O   0  0  0  0  0  0  0  0  0  0  0  0
   11.2377   40.7903   33.3696 O   0  0  0  0  0  0  0  0  0  0  0  0
   10.9187   40.6904   31.9961 C   0  0  0  0  0  0  0  0  0  0  0  0
   11.5175   39.3823   31.4411 C   0  0  0  0  0  0  0  0  0  0  0  0
   12.7494   39.0892   32.0755 O   0  0  0  0  0  0  0  0  0  0  0  0
   10.6036   38.1899   31.6659 C   0  0  0  0  0  0  0  0  0  0  0  0
   12.9401   37.6833   32.0276 C   0  0  0  0  0  0  0  0  0  0  0  0
    9.6376   38.0785   30.6474 O   0  0  0  0  0  0  0  0  0  0  0  0
   11.5803   37.0203   31.6937 C   0  0  0  0  0  0  0  0  0  0  0  0
   13.4902   37.2177   33.3237 N   0  0  0  0  0  0  0  0  0  0  0  0
   11.6118   36.3193   30.4680 O   0  0  0  0  0  0  0  0  0  0  0  0
   14.4759   36.3271   33.5731 C   0  0  0  0  0  0  0  0  0  0  0  0
   13.1176   37.6317   34.5688 C   0  0  0  0  0  0  0  0  0  0  0  0
   15.2064   35.6141   32.6742 N   0  0  0  0  0  0  0  0  0  0  0  0
   14.6729   36.2274   34.9184 C   0  0  0  0  0  0  0  0  0  0  0  0
   13.8221   37.0457   35.5783 N   0  0  0  0  0  0  0  0  0  0  0  0
   16.1637   34.7597   33.1549 C   0  0  0  0  0  0  0  0  0  0  0  0
   15.6514   35.3493   35.4133 C   0  0  0  0  0  0  0  0  0  0  0  0
   16.3791   34.6312   34.5044 N   0  0  0  0  0  0  0  0  0  0  0  0
   15.9001   35.1935   36.8091 N   0  0  0  0  0  0  0  0  0  0  0  0
    9.8086   44.9960   32.1515 H   0  0  0  0  0  0  0  0  0  0  0  0
   11.9222   45.7016   32.9833 H   0  0  0  0  0  0  0  0  0  0  0  0
   11.2747   46.1197   34.4982 H   0  0  0  0  0  0  0  0  0  0  0  0
    7.8355   44.9315   33.7196 H   0  0  0  0  0  0  0  0  0  0  0  0
    8.7980   45.7920   34.9687 H   0  0  0  0  0  0  0  0  0  0  0  0
    8.8399   49.4614   32.2257 H   0  0  0  0  0  0  0  0  0  0  0  0
    7.3629   49.5941   33.2690 H   0  0  0  0  0  0  0  0  0  0  0  0
    9.0309   49.4203   35.9473 H   0  0  0  0  0  0  0  0  0  0  0  0
   10.4329   53.6865   33.8487 H   0  0  0  0  0  0  0  0  0  0  0  0
   10.1501   51.1477   37.2804 H   0  0  0  0  0  0  0  0  0  0  0  0
   10.8761   53.2663   36.2308 H   0  0  0  0  0  0  0  0  0  0  0  0
   11.3998   41.5454   31.4747 H   0  0  0  0  0  0  0  0  0  0  0  0
    9.8309   40.7397   31.7558 H   0  0  0  0  0  0  0  0  0  0  0  0
   11.6989   39.5091   30.3489 H   0  0  0  0  0  0  0  0  0  0  0  0
   10.1130   38.2588   32.6664 H   0  0  0  0  0  0  0  0  0  0  0  0
   13.6800   37.4627   31.2265 H   0  0  0  0  0  0  0  0  0  0  0  0
    8.8952   38.6907   30.8891 H   0  0  0  0  0  0  0  0  0  0  0  0
   11.2830   36.3060   32.4929 H   0  0  0  0  0  0  0  0  0  0  0  0
   11.8859   36.9589   29.7593 H   0  0  0  0  0  0  0  0  0  0  0  0
   12.3360   38.3600   34.7441 H   0  0  0  0  0  0  0  0  0  0  0  0
   16.7572   34.1793   32.4621 H   0  0  0  0  0  0  0  0  0  0  0  0
   16.6361   34.5318   37.1416 H   0  0  0  0  0  0  0  0  0  0  0  0
   15.3528   35.7357   37.5140 H   0  0  0  0  0  0  0  0  0  0  0  0
  1  2  2  0
  1  3  1  0
  3  4  1  0
  4  5  1  0
  6  1  1  0
  7  6  1  0
  6  8  1  0
  8  9  1  0
  9 10  1  0
  9 11  2  0
 10 12  1  0
 12 13  1  0
 13 14  2  0
 15 13  1  0
 14 16  1  0
 14 17  1  0
 18 15  2  0
 16 19  1  0
 16 20  2  0
 17 21  2  0
 21 18  1  0
  4 22  2  0
  4 23  1  0
 24 23  1  0
 24 25  1  0
 25 26  1  0
 25 27  1  0
 26 28  1  0
 27 29  1  0
 27 30  1  0
 30 28  1  0
 28 31  1  0
 30 32  1  0
 33 31  1  0
 34 31  1  0
 35 33  2  0
 33 36  1  0
 37 34  2  0
 38 35  1  0
 36 39  2  0
 36 37  1  0
 40 38  2  0
 40 39  1  0
 39 41  1  0
  6 42  1  6
  7 43  1  0
  7 44  1  0
  8 45  1  0
  8 46  1  0
 12 47  1  0
 12 48  1  0
 15 49  1  0
 17 50  1  0
 18 51  1  0
 21 52  1  0
 24 53  1  0
 24 54  1  0
 25 55  1  0
 27 56  1  0
 28 57  1  0
 29 58  1  0
 30 59  1  0
 32 60  1  0
 34 61  1  0
 38 62  1  0
 41 63  1  0
 41 64  1  0
M  CHG  3   5  -1  16   1  19  -1
M  END
>  <EmbedRMS>  (486) 
0.0888414020180262

$$$$

     RDKit          3D

 64 67  0  0  0  0  0  0  0  0999 V2000
   10.2802   43.7762   33.8100 C   0  0  0  0  0  0  0  0  0  0  0  0
   11.4064   43.5918   34.3592 O   0  0  0  0  0  0  0  0  0  0  0  0
    9.3682   42.7303   33.6992 O   0  0  0  0  0  0  0  0  0  0  0  0
    9.8870   41.2339   34.2831 P   0  0  0  0  0  5  0  0  0  0  0  0
   10.3676   41.4696   35.8735 O   0  0  0  0  0  1  0  0  0  0  0  0
    9.9511   45.1163   33.2478 C   0  0  2  0  0  0  0  0  0  0  0  0
   11.0760   46.0243   33.4796 N   0  0  0  0  0  0  0  0  0  0  0  0
    8.6563   45.6927   33.8673 C   0  0  0  0  0  0  0  0  0  0  0  0
    7.4150   45.0517   33.2983 C   0  0  0  0  0  0  0  0  0  0  0  0
    6.8567   45.4387   32.0703 O   0  0  0  0  0  0  0  0  0  0  0  0
    6.8686   44.1137   33.9363 O   0  0  0  0  0  0  0  0  0  0  0  0
    7.2729   46.5698   31.3027 C   0  0  0  0  0  0  0  0  0  0  0  0
    6.8370   47.8661   31.9506 C   0  0  0  0  0  0  0  0  0  0  0  0
    7.6602   49.0222   31.9453 C   0  0  0  0  0  0  0  0  0  0  0  0
    5.5765   47.9266   32.5744 C   0  0  0  0  0  0  0  0  0  0  0  0
    8.9110   49.0528   31.2390 N   0  0  0  0  0  4  0  0  0  0  0  0
    7.2354   50.1722   32.6339 C   0  0  0  0  0  0  0  0  0  0  0  0
    5.1638   49.0841   33.2359 C   0  0  0  0  0  0  0  0  0  0  0  0
    8.9865   48.5834   29.9479 O   0  0  0  0  0  1  0  0  0  0  0  0
    9.8780   49.6891   31.7066 O   0  0  0  0  0  0  0  0  0  0  0  0
    5.9966   50.2008   33.2757 C   0  0  0  0  0  0  0  0  0  0  0  0
    8.8090   40.1915   34.2081 O   0  0  0  0  0  0  0  0  0  0  0  0
   11.2381   40.7906   33.3657 O   0  0  0  0  0  0  0  0  0  0  0  0
   10.9146   40.6850   31.9930 C   0  0  0  0  0  0  0  0  0  0  0  0
   11.5167   39.3773   31.4392 C   0  0  0  0  0  0  0  0  0  0  0  0
   12.7473   39.0854   32.0738 O   0  0  0  0  0  0  0  0  0  0  0  0
   10.6047   38.1868   31.6670 C   0  0  0  0  0  0  0  0  0  0  0  0
   12.9346   37.6790   32.0282 C   0  0  0  0  0  0  0  0  0  0  0  0
    9.6378   38.0918   30.6489 O   0  0  0  0  0  0  0  0  0  0  0  0
   11.5761   37.0129   31.7056 C   0  0  0  0  0  0  0  0  0  0  0  0
   13.4909   37.2177   33.3233 N   0  0  0  0  0  0  0  0  0  0  0  0
   11.6233   36.3371   30.4684 O   0  0  0  0  0  0  0  0  0  0  0  0
   14.4765   36.3272   33.5727 C   0  0  0  0  0  0  0  0  0  0  0  0
   13.1182   37.6315   34.5685 C   0  0  0  0  0  0  0  0  0  0  0  0
   15.2066   35.6137   32.6739 N   0  0  0  0  0  0  0  0  0  0  0  0
   14.6736   36.2276   34.9182 C   0  0  0  0  0  0  0  0  0  0  0  0
   13.8227   37.0457   35.5781 N   0  0  0  0  0  0  0  0  0  0  0  0
   16.1638   34.7592   33.1548 C   0  0  0  0  0  0  0  0  0  0  0  0
   15.6517   35.3493   35.4131 C   0  0  0  0  0  0  0  0  0  0  0  0
   16.3792   34.6309   34.5043 N   0  0  0  0  0  0  0  0  0  0  0  0
   15.9002   35.1934   36.8090 N   0  0  0  0  0  0  0  0  0  0  0  0
    9.8242   44.9939   32.1503 H   0  0  0  0  0  0  0  0  0  0  0  0
   10.9137   46.9021   32.9338 H   0  0  0  0  0  0  0  0  0  0  0  0
   11.1099   46.2900   34.4918 H   0  0  0  0  0  0  0  0  0  0  0  0
    8.6736   45.5557   34.9715 H   0  0  0  0  0  0  0  0  0  0  0  0
    8.6109   46.7871   33.6961 H   0  0  0  0  0  0  0  0  0  0  0  0
    8.3702   46.5235   31.1619 H   0  0  0  0  0  0  0  0  0  0  0  0
    6.8029   46.5071   30.2993 H   0  0  0  0  0  0  0  0  0  0  0  0
    4.9157   47.0687   32.5638 H   0  0  0  0  0  0  0  0  0  0  0  0
    7.8556   51.0596   32.6506 H   0  0  0  0  0  0  0  0  0  0  0  0
    4.1978   49.1130   33.7232 H   0  0  0  0  0  0  0  0  0  0  0  0
    5.6758   51.0959   33.7927 H   0  0  0  0  0  0  0  0  0  0  0  0
    9.8245   40.7213   31.7567 H   0  0  0  0  0  0  0  0  0  0  0  0
   11.3873   41.5415   31.4664 H   0  0  0  0  0  0  0  0  0  0  0  0
   11.6987   39.5012   30.3466 H   0  0  0  0  0  0  0  0  0  0  0  0
   10.1096   38.2772   32.6629 H   0  0  0  0  0  0  0  0  0  0  0  0
   13.6672   37.4543   31.2212 H   0  0  0  0  0  0  0  0  0  0  0  0
    8.9778   37.4159   30.9535 H   0  0  0  0  0  0  0  0  0  0  0  0
   11.2860   36.3041   32.5177 H   0  0  0  0  0  0  0  0  0  0  0  0
   10.8689   35.6919   30.4657 H   0  0  0  0  0  0  0  0  0  0  0  0
   12.3355   38.3586   34.7439 H   0  0  0  0  0  0  0  0  0  0  0  0
   16.7572   34.1786   32.4621 H   0  0  0  0  0  0  0  0  0  0  0  0
   16.6361   34.5315   37.1415 H   0  0  0  0  0  0  0  0  0  0  0  0
   15.3530   35.7358   37.5138 H   0  0  0  0  0  0  0  0  0  0  0  0
  1  2  2  0
  1  3  1  0
  3  4  1  0
  4  5  1  0
  6  1  1  0
  7  6  1  0
  6  8  1  0
  8  9  1  0
  9 10  1  0
  9 11  2  0
 10 12  1  0
 12 13  1  0
 13 14  2  0
 15 13  1  0
 14 16  1  0
 14 17  1  0
 18 15  2  0
 16 19  1  0
 16 20  2  0
 17 21  2  0
 21 18  1  0
  4 22  2  0
  4 23  1  0
 24 23  1  0
 24 25  1  0
 25 26  1  0
 25 27  1  0
 26 28  1  0
 27 29  1  0
 27 30  1  0
 30 28  1  0
 28 31  1  0
 30 32  1  0
 33 31  1  0
 34 31  1  0
 35 33  2  0
 33 36  1  0
 37 34  2  0
 38 35  1  0
 36 39  2  0
 36 37  1  0
 40 38  2  0
 40 39  1  0
 39 41  1  0
  6 42  1  6
  7 43  1  0
  7 44  1  0
  8 45  1  0
  8 46  1  0
 12 47  1  0
 12 48  1  0
 15 49  1  0
 17 50  1  0
 18 51  1  0
 21 52  1  0
 24 53  1  0
 24 54  1  0
 25 55  1  0
 27 56  1  0
 28 57  1  0
 29 58  1  0
 30 59  1  0
 32 60  1  0
 34 61  1  0
 38 62  1  0
 41 63  1  0
 41 64  1  0
M  CHG  3   5  -1  16   1  19  -1
M  END
>  <EmbedRMS>  (487) 
0.08891538024087763

$$$$

     RDKit          3D

 64 67  0  0  0  0  0  0  0  0999 V2000
   10.2857   43.7713   33.8029 C   0  0  0  0  0  0  0  0  0  0  0  0
   11.4086   43.5867   34.3586 O   0  0  0  0  0  0  0  0  0  0  0  0
    9.3657   42.7313   33.7015 O   0  0  0  0  0  0  0  0  0  0  0  0
    9.8849   41.2344   34.2850 P   0  0  0  0  0  5  0  0  0  0  0  0
   10.3698   41.4683   35.8741 O   0  0  0  0  0  1  0  0  0  0  0  0
    9.9614   45.1113   33.2379 C   0  0  2  0  0  0  0  0  0  0  0  0
   11.0651   46.0393   33.4903 N   0  0  0  0  0  0  0  0  0  0  0  0
    8.6363   45.6623   33.8099 C   0  0  0  0  0  0  0  0  0  0  0  0
    8.6583   45.9384   35.2892 C   0  0  0  0  0  0  0  0  0  0  0  0
    9.6765   45.4162   36.0981 O   0  0  0  0  0  0  0  0  0  0  0  0
    7.7136   46.5994   35.7996 O   0  0  0  0  0  0  0  0  0  0  0  0
    9.6603   45.4587   37.5251 C   0  0  0  0  0  0  0  0  0  0  0  0
    9.0828   44.1938   38.1312 C   0  0  0  0  0  0  0  0  0  0  0  0
    9.3864   43.8239   39.4698 C   0  0  0  0  0  0  0  0  0  0  0  0
    8.2343   43.3599   37.3721 C   0  0  0  0  0  0  0  0  0  0  0  0
   10.1906   44.6603   40.3216 N   0  0  0  0  0  4  0  0  0  0  0  0
    8.8906   42.6097   39.9791 C   0  0  0  0  0  0  0  0  0  0  0  0
    7.7411   42.1679   37.9034 C   0  0  0  0  0  0  0  0  0  0  0  0
   10.0233   46.0258   40.3202 O   0  0  0  0  0  1  0  0  0  0  0  0
   10.9215   44.1466   41.1938 O   0  0  0  0  0  0  0  0  0  0  0  0
    8.0754   41.7891   39.2005 C   0  0  0  0  0  0  0  0  0  0  0  0
    8.8073   40.1916   34.2108 O   0  0  0  0  0  0  0  0  0  0  0  0
   11.2359   40.7910   33.3673 O   0  0  0  0  0  0  0  0  0  0  0  0
   10.9126   40.6860   31.9948 C   0  0  0  0  0  0  0  0  0  0  0  0
   11.5165   39.3799   31.4411 C   0  0  0  0  0  0  0  0  0  0  0  0
   12.7484   39.0888   32.0764 O   0  0  0  0  0  0  0  0  0  0  0  0
   10.6049   38.1876   31.6660 C   0  0  0  0  0  0  0  0  0  0  0  0
   12.9411   37.6831   32.0279 C   0  0  0  0  0  0  0  0  0  0  0  0
    9.6358   38.0929   30.6503 O   0  0  0  0  0  0  0  0  0  0  0  0
   11.5827   37.0180   31.6937 C   0  0  0  0  0  0  0  0  0  0  0  0
   13.4908   37.2178   33.3240 N   0  0  0  0  0  0  0  0  0  0  0  0
   11.6141   36.3181   30.4675 O   0  0  0  0  0  0  0  0  0  0  0  0
   14.4762   36.3270   33.5733 C   0  0  0  0  0  0  0  0  0  0  0  0
   13.1179   37.6317   34.5689 C   0  0  0  0  0  0  0  0  0  0  0  0
   15.2066   35.6141   32.6743 N   0  0  0  0  0  0  0  0  0  0  0  0
   14.6731   36.2273   34.9186 C   0  0  0  0  0  0  0  0  0  0  0  0
   13.8223   37.0456   35.5785 N   0  0  0  0  0  0  0  0  0  0  0  0
   16.1638   34.7595   33.1550 C   0  0  0  0  0  0  0  0  0  0  0  0
   15.6515   35.3492   35.4134 C   0  0  0  0  0  0  0  0  0  0  0  0
   16.3792   34.6310   34.5045 N   0  0  0  0  0  0  0  0  0  0  0  0
   15.9002   35.1934   36.8092 N   0  0  0  0  0  0  0  0  0  0  0  0
    9.8348   44.9909   32.1383 H   0  0  0  0  0  0  0  0  0  0  0  0
   11.8956   45.7244   32.9363 H   0  0  0  0  0  0  0  0  0  0  0  0
   10.8070   46.9749   33.1000 H   0  0  0  0  0  0  0  0  0  0  0  0
    8.3833   46.6053   33.2783 H   0  0  0  0  0  0  0  0  0  0  0  0
    7.8157   44.9431   33.5982 H   0  0  0  0  0  0  0  0  0  0  0  0
   10.7148   45.5655   37.8557 H   0  0  0  0  0  0  0  0  0  0  0  0
    9.0988   46.3461   37.8879 H   0  0  0  0  0  0  0  0  0  0  0  0
    7.9603   43.6092   36.3575 H   0  0  0  0  0  0  0  0  0  0  0  0
    9.1197   42.3072   40.9932 H   0  0  0  0  0  0  0  0  0  0  0  0
    7.1031   41.5321   37.3029 H   0  0  0  0  0  0  0  0  0  0  0  0
    7.6943   40.8615   39.6078 H   0  0  0  0  0  0  0  0  0  0  0  0
    9.8224   40.7205   31.7588 H   0  0  0  0  0  0  0  0  0  0  0  0
   11.3840   41.5436   31.4689 H   0  0  0  0  0  0  0  0  0  0  0  0
   11.6990   39.5068   30.3490 H   0  0  0  0  0  0  0  0  0  0  0  0
   10.1118   38.2721   32.6632 H   0  0  0  0  0  0  0  0  0  0  0  0
   13.6815   37.4636   31.2270 H   0  0  0  0  0  0  0  0  0  0  0  0
    9.0036   37.3827   30.9349 H   0  0  0  0  0  0  0  0  0  0  0  0
   11.2847   36.3041   32.4929 H   0  0  0  0  0  0  0  0  0  0  0  0
   11.8850   36.9591   29.7589 H   0  0  0  0  0  0  0  0  0  0  0  0
   12.3363   38.3600   34.7442 H   0  0  0  0  0  0  0  0  0  0  0  0
   16.7574   34.1791   32.4623 H   0  0  0  0  0  0  0  0  0  0  0  0
   16.6362   34.5317   37.1417 H   0  0  0  0  0  0  0  0  0  0  0  0
   15.3529   35.7356   37.5141 H   0  0  0  0  0  0  0  0  0  0  0  0
  1  2  2  0
  1  3  1  0
  3  4  1  0
  4  5  1  0
  6  1  1  0
  7  6  1  0
  6  8  1  0
  8  9  1  0
  9 10  1  0
  9 11  2  0
 10 12  1  0
 12 13  1  0
 13 14  2  0
 15 13  1  0
 14 16  1  0
 14 17  1  0
 18 15  2  0
 16 19  1  0
 16 20  2  0
 17 21  2  0
 21 18  1  0
  4 22  2  0
  4 23  1  0
 24 23  1  0
 24 25  1  0
 25 26  1  0
 25 27  1  0
 26 28  1  0
 27 29  1  0
 27 30  1  0
 30 28  1  0
 28 31  1  0
 30 32  1  0
 33 31  1  0
 34 31  1  0
 35 33  2  0
 33 36  1  0
 37 34  2  0
 38 35  1  0
 36 39  2  0
 36 37  1  0
 40 38  2  0
 40 39  1  0
 39 41  1  0
  6 42  1  6
  7 43  1  0
  7 44  1  0
  8 45  1  0
  8 46  1  0
 12 47  1  0
 12 48  1  0
 15 49  1  0
 17 50  1  0
 18 51  1  0
 21 52  1  0
 24 53  1  0
 24 54  1  0
 25 55  1  0
 27 56  1  0
 28 57  1  0
 29 58  1  0
 30 59  1  0
 32 60  1  0
 34 61  1  0
 38 62  1  0
 41 63  1  0
 41 64  1  0
M  CHG  3   5  -1  16   1  19  -1
M  END
>  <EmbedRMS>  (488) 
0.08773638368052972

$$$$

     RDKit          3D

 64 67  0  0  0  0  0  0  0  0999 V2000
   10.2817   43.7750   33.8049 C   0  0  0  0  0  0  0  0  0  0  0  0
   11.4065   43.5923   34.3574 O   0  0  0  0  0  0  0  0  0  0  0  0
    9.3701   42.7287   33.6987 O   0  0  0  0  0  0  0  0  0  0  0  0
    9.8881   41.2336   34.2852 P   0  0  0  0  0  5  0  0  0  0  0  0
   10.3681   41.4713   35.8752 O   0  0  0  0  0  1  0  0  0  0  0  0
    9.9579   45.1125   33.2302 C   0  0  2  0  0  0  0  0  0  0  0  0
   11.0680   46.0289   33.4978 N   0  0  0  0  0  0  0  0  0  0  0  0
    8.6323   45.6746   33.7984 C   0  0  0  0  0  0  0  0  0  0  0  0
    7.4417   45.1525   33.0502 C   0  0  0  0  0  0  0  0  0  0  0  0
    6.9455   43.8796   33.3408 O   0  0  0  0  0  0  0  0  0  0  0  0
    6.9218   45.8506   32.1372 O   0  0  0  0  0  0  0  0  0  0  0  0
    5.8506   43.2974   32.6428 C   0  0  0  0  0  0  0  0  0  0  0  0
    5.7181   41.8508   33.0421 C   0  0  0  0  0  0  0  0  0  0  0  0
    5.0422   41.4477   34.2257 C   0  0  0  0  0  0  0  0  0  0  0  0
    6.2932   40.8715   32.2111 C   0  0  0  0  0  0  0  0  0  0  0  0
    4.4711   42.3990   35.1430 N   0  0  0  0  0  4  0  0  0  0  0  0
    4.9178   40.0752   34.5070 C   0  0  0  0  0  0  0  0  0  0  0  0
    6.1667   39.5158   32.5156 C   0  0  0  0  0  0  0  0  0  0  0  0
    3.3762   42.0501   35.8999 O   0  0  0  0  0  1  0  0  0  0  0  0
    5.0541   43.4735   35.3939 O   0  0  0  0  0  0  0  0  0  0  0  0
    5.4763   39.1184   33.6584 C   0  0  0  0  0  0  0  0  0  0  0  0
    8.8117   40.1900   34.2121 O   0  0  0  0  0  0  0  0  0  0  0  0
   11.2393   40.7897   33.3688 O   0  0  0  0  0  0  0  0  0  0  0  0
   10.9179   40.6889   31.9956 C   0  0  0  0  0  0  0  0  0  0  0  0
   11.5173   39.3806   31.4397 C   0  0  0  0  0  0  0  0  0  0  0  0
   12.7477   39.0877   32.0750 O   0  0  0  0  0  0  0  0  0  0  0  0
   10.6042   38.1879   31.6644 C   0  0  0  0  0  0  0  0  0  0  0  0
   12.9353   37.6818   32.0289 C   0  0  0  0  0  0  0  0  0  0  0  0
    9.6427   38.0731   30.6423 O   0  0  0  0  0  0  0  0  0  0  0  0
   11.5756   37.0162   31.7050 C   0  0  0  0  0  0  0  0  0  0  0  0
   13.4905   37.2184   33.3237 N   0  0  0  0  0  0  0  0  0  0  0  0
   11.6098   36.3394   30.4688 O   0  0  0  0  0  0  0  0  0  0  0  0
   14.4760   36.3275   33.5727 C   0  0  0  0  0  0  0  0  0  0  0  0
   13.1179   37.6318   34.5690 C   0  0  0  0  0  0  0  0  0  0  0  0
   15.2062   35.6142   32.6738 N   0  0  0  0  0  0  0  0  0  0  0  0
   14.6732   36.2276   34.9182 C   0  0  0  0  0  0  0  0  0  0  0  0
   13.8225   37.0457   35.5783 N   0  0  0  0  0  0  0  0  0  0  0  0
   16.1634   34.7596   33.1545 C   0  0  0  0  0  0  0  0  0  0  0  0
   15.6514   35.3493   35.4129 C   0  0  0  0  0  0  0  0  0  0  0  0
   16.3790   34.6311   34.5040 N   0  0  0  0  0  0  0  0  0  0  0  0
   15.9002   35.1933   36.8088 N   0  0  0  0  0  0  0  0  0  0  0  0
    9.8707   44.9939   32.1266 H   0  0  0  0  0  0  0  0  0  0  0  0
   11.0644   46.2952   34.5104 H   0  0  0  0  0  0  0  0  0  0  0  0
   10.9192   46.9049   32.9456 H   0  0  0  0  0  0  0  0  0  0  0  0
    8.5319   45.4251   34.8775 H   0  0  0  0  0  0  0  0  0  0  0  0
    8.6301   46.7843   33.7216 H   0  0  0  0  0  0  0  0  0  0  0  0
    6.0228   43.3777   31.5464 H   0  0  0  0  0  0  0  0  0  0  0  0
    4.9152   43.8533   32.8666 H   0  0  0  0  0  0  0  0  0  0  0  0
    6.8350   41.1572   31.3176 H   0  0  0  0  0  0  0  0  0  0  0  0
    4.4019   39.7435   35.3990 H   0  0  0  0  0  0  0  0  0  0  0  0
    6.6043   38.7712   31.8638 H   0  0  0  0  0  0  0  0  0  0  0  0
    5.3801   38.0660   33.8925 H   0  0  0  0  0  0  0  0  0  0  0  0
   11.3972   41.5441   31.4730 H   0  0  0  0  0  0  0  0  0  0  0  0
    9.8293   40.7381   31.7576 H   0  0  0  0  0  0  0  0  0  0  0  0
   11.6997   39.5060   30.3474 H   0  0  0  0  0  0  0  0  0  0  0  0
   10.1057   38.2628   32.6605 H   0  0  0  0  0  0  0  0  0  0  0  0
   13.6686   37.4589   31.2222 H   0  0  0  0  0  0  0  0  0  0  0  0
    8.9223   38.7215   30.8531 H   0  0  0  0  0  0  0  0  0  0  0  0
   11.2675   36.3080   32.5099 H   0  0  0  0  0  0  0  0  0  0  0  0
   12.1415   35.5143   30.6172 H   0  0  0  0  0  0  0  0  0  0  0  0
   12.3356   38.3593   34.7447 H   0  0  0  0  0  0  0  0  0  0  0  0
   16.7566   34.1789   32.4617 H   0  0  0  0  0  0  0  0  0  0  0  0
   16.6361   34.5315   37.1412 H   0  0  0  0  0  0  0  0  0  0  0  0
   15.3530   35.7356   37.5137 H   0  0  0  0  0  0  0  0  0  0  0  0
  1  2  2  0
  1  3  1  0
  3  4  1  0
  4  5  1  0
  6  1  1  0
  7  6  1  0
  6  8  1  0
  8  9  1  0
  9 10  1  0
  9 11  2  0
 10 12  1  0
 12 13  1  0
 13 14  2  0
 15 13  1  0
 14 16  1  0
 14 17  1  0
 18 15  2  0
 16 19  1  0
 16 20  2  0
 17 21  2  0
 21 18  1  0
  4 22  2  0
  4 23  1  0
 24 23  1  0
 24 25  1  0
 25 26  1  0
 25 27  1  0
 26 28  1  0
 27 29  1  0
 27 30  1  0
 30 28  1  0
 28 31  1  0
 30 32  1  0
 33 31  1  0
 34 31  1  0
 35 33  2  0
 33 36  1  0
 37 34  2  0
 38 35  1  0
 36 39  2  0
 36 37  1  0
 40 38  2  0
 40 39  1  0
 39 41  1  0
  6 42  1  6
  7 43  1  0
  7 44  1  0
  8 45  1  0
  8 46  1  0
 12 47  1  0
 12 48  1  0
 15 49  1  0
 17 50  1  0
 18 51  1  0
 21 52  1  0
 24 53  1  0
 24 54  1  0
 25 55  1  0
 27 56  1  0
 28 57  1  0
 29 58  1  0
 30 59  1  0
 32 60  1  0
 34 61  1  0
 38 62  1  0
 41 63  1  0
 41 64  1  0
M  CHG  3   5  -1  16   1  19  -1
M  END
>  <EmbedRMS>  (489) 
0.08908573807880608

$$$$

     RDKit          3D

 64 67  0  0  0  0  0  0  0  0999 V2000
   10.2803   43.7766   33.8109 C   0  0  0  0  0  0  0  0  0  0  0  0
   11.4065   43.5924   34.3600 O   0  0  0  0  0  0  0  0  0  0  0  0
    9.3700   42.7292   33.6977 O   0  0  0  0  0  0  0  0  0  0  0  0
    9.8870   41.2334   34.2837 P   0  0  0  0  0  5  0  0  0  0  0  0
   10.3664   41.4698   35.8743 O   0  0  0  0  0  1  0  0  0  0  0  0
    9.9487   45.1190   33.2517 C   0  0  2  0  0  0  0  0  0  0  0  0
   11.0767   46.0248   33.4763 N   0  0  0  0  0  0  0  0  0  0  0  0
    8.6602   45.7003   33.8770 C   0  0  0  0  0  0  0  0  0  0  0  0
    7.4403   44.9363   33.4622 C   0  0  0  0  0  0  0  0  0  0  0  0
    6.8736   44.0170   34.3488 O   0  0  0  0  0  0  0  0  0  0  0  0
    6.9605   45.0975   32.3068 O   0  0  0  0  0  0  0  0  0  0  0  0
    5.8098   43.1438   33.9796 C   0  0  0  0  0  0  0  0  0  0  0  0
    5.4658   42.1955   35.1064 C   0  0  0  0  0  0  0  0  0  0  0  0
    4.1843   41.5894   35.1951 C   0  0  0  0  0  0  0  0  0  0  0  0
    6.4405   41.8754   36.0735 C   0  0  0  0  0  0  0  0  0  0  0  0
    3.1757   41.8046   34.1916 N   0  0  0  0  0  4  0  0  0  0  0  0
    3.8955   40.7476   36.2848 C   0  0  0  0  0  0  0  0  0  0  0  0
    6.1392   41.0219   37.1351 C   0  0  0  0  0  0  0  0  0  0  0  0
    3.5111   41.8185   32.8574 O   0  0  0  0  0  1  0  0  0  0  0  0
    1.9676   41.7979   34.5067 O   0  0  0  0  0  0  0  0  0  0  0  0
    4.8664   40.4675   37.2466 C   0  0  0  0  0  0  0  0  0  0  0  0
    8.8084   40.1915   34.2080 O   0  0  0  0  0  0  0  0  0  0  0  0
   11.2380   40.7901   33.3670 O   0  0  0  0  0  0  0  0  0  0  0  0
   10.9139   40.6858   31.9946 C   0  0  0  0  0  0  0  0  0  0  0  0
   11.5170   39.3796   31.4407 C   0  0  0  0  0  0  0  0  0  0  0  0
   12.7489   39.0885   32.0759 O   0  0  0  0  0  0  0  0  0  0  0  0
   10.6051   38.1877   31.6660 C   0  0  0  0  0  0  0  0  0  0  0  0
   12.9411   37.6827   32.0277 C   0  0  0  0  0  0  0  0  0  0  0  0
    9.6357   38.0931   30.6504 O   0  0  0  0  0  0  0  0  0  0  0  0
   11.5826   37.0179   31.6937 C   0  0  0  0  0  0  0  0  0  0  0  0
   13.4908   37.2176   33.3239 N   0  0  0  0  0  0  0  0  0  0  0  0
   11.6139   36.3179   30.4675 O   0  0  0  0  0  0  0  0  0  0  0  0
   14.4762   36.3270   33.5733 C   0  0  0  0  0  0  0  0  0  0  0  0
   13.1178   37.6316   34.5688 C   0  0  0  0  0  0  0  0  0  0  0  0
   15.2067   35.6140   32.6744 N   0  0  0  0  0  0  0  0  0  0  0  0
   14.6731   36.2273   34.9186 C   0  0  0  0  0  0  0  0  0  0  0  0
   13.8222   37.0456   35.5785 N   0  0  0  0  0  0  0  0  0  0  0  0
   16.1639   34.7595   33.1551 C   0  0  0  0  0  0  0  0  0  0  0  0
   15.6515   35.3491   35.4134 C   0  0  0  0  0  0  0  0  0  0  0  0
   16.3792   34.6310   34.5046 N   0  0  0  0  0  0  0  0  0  0  0  0
   15.9002   35.1934   36.8093 N   0  0  0  0  0  0  0  0  0  0  0  0
    9.8046   45.0051   32.1541 H   0  0  0  0  0  0  0  0  0  0  0  0
   10.9078   46.9080   32.9415 H   0  0  0  0  0  0  0  0  0  0  0  0
   11.1258   46.2812   34.4903 H   0  0  0  0  0  0  0  0  0  0  0  0
    8.7399   45.6972   34.9863 H   0  0  0  0  0  0  0  0  0  0  0  0
    8.5351   46.7568   33.5544 H   0  0  0  0  0  0  0  0  0  0  0  0
    6.1138   42.5469   33.0927 H   0  0  0  0  0  0  0  0  0  0  0  0
    4.9255   43.7654   33.7218 H   0  0  0  0  0  0  0  0  0  0  0  0
    7.4376   42.2922   36.0178 H   0  0  0  0  0  0  0  0  0  0  0  0
    2.9211   40.2843   36.3754 H   0  0  0  0  0  0  0  0  0  0  0  0
    6.8951   40.7924   37.8752 H   0  0  0  0  0  0  0  0  0  0  0  0
    4.6346   39.8082   38.0731 H   0  0  0  0  0  0  0  0  0  0  0  0
    9.8237   40.7210   31.7584 H   0  0  0  0  0  0  0  0  0  0  0  0
   11.3858   41.5432   31.4688 H   0  0  0  0  0  0  0  0  0  0  0  0
   11.6993   39.5064   30.3485 H   0  0  0  0  0  0  0  0  0  0  0  0
   10.1121   38.2724   32.6633 H   0  0  0  0  0  0  0  0  0  0  0  0
   13.6815   37.4629   31.2268 H   0  0  0  0  0  0  0  0  0  0  0  0
    9.0029   37.3836   30.9356 H   0  0  0  0  0  0  0  0  0  0  0  0
   11.2845   36.3040   32.4929 H   0  0  0  0  0  0  0  0  0  0  0  0
   11.8847   36.9590   29.7588 H   0  0  0  0  0  0  0  0  0  0  0  0
   12.3362   38.3598   34.7440 H   0  0  0  0  0  0  0  0  0  0  0  0
   16.7574   34.1790   32.4623 H   0  0  0  0  0  0  0  0  0  0  0  0
   16.6363   34.5317   37.1418 H   0  0  0  0  0  0  0  0  0  0  0  0
   15.3529   35.7356   37.5141 H   0  0  0  0  0  0  0  0  0  0  0  0
  1  2  2  0
  1  3  1  0
  3  4  1  0
  4  5  1  0
  6  1  1  0
  7  6  1  0
  6  8  1  0
  8  9  1  0
  9 10  1  0
  9 11  2  0
 10 12  1  0
 12 13  1  0
 13 14  2  0
 15 13  1  0
 14 16  1  0
 14 17  1  0
 18 15  2  0
 16 19  1  0
 16 20  2  0
 17 21  2  0
 21 18  1  0
  4 22  2  0
  4 23  1  0
 24 23  1  0
 24 25  1  0
 25 26  1  0
 25 27  1  0
 26 28  1  0
 27 29  1  0
 27 30  1  0
 30 28  1  0
 28 31  1  0
 30 32  1  0
 33 31  1  0
 34 31  1  0
 35 33  2  0
 33 36  1  0
 37 34  2  0
 38 35  1  0
 36 39  2  0
 36 37  1  0
 40 38  2  0
 40 39  1  0
 39 41  1  0
  6 42  1  6
  7 43  1  0
  7 44  1  0
  8 45  1  0
  8 46  1  0
 12 47  1  0
 12 48  1  0
 15 49  1  0
 17 50  1  0
 18 51  1  0
 21 52  1  0
 24 53  1  0
 24 54  1  0
 25 55  1  0
 27 56  1  0
 28 57  1  0
 29 58  1  0
 30 59  1  0
 32 60  1  0
 34 61  1  0
 38 62  1  0
 41 63  1  0
 41 64  1  0
M  CHG  3   5  -1  16   1  19  -1
M  END
>  <EmbedRMS>  (490) 
0.08810334642613987

$$$$

     RDKit          3D

 64 67  0  0  0  0  0  0  0  0999 V2000
   10.2848   43.7726   33.8070 C   0  0  0  0  0  0  0  0  0  0  0  0
   11.4104   43.5873   34.3563 O   0  0  0  0  0  0  0  0  0  0  0  0
    9.3664   42.7313   33.7015 O   0  0  0  0  0  0  0  0  0  0  0  0
    9.8855   41.2340   34.2836 P   0  0  0  0  0  5  0  0  0  0  0  0
   10.3668   41.4692   35.8739 O   0  0  0  0  0  1  0  0  0  0  0  0
    9.9583   45.1107   33.2436 C   0  0  2  0  0  0  0  0  0  0  0  0
   11.0675   46.0369   33.4847 N   0  0  0  0  0  0  0  0  0  0  0  0
    8.6191   45.6572   33.7883 C   0  0  0  0  0  0  0  0  0  0  0  0
    8.6104   45.8075   35.2808 C   0  0  0  0  0  0  0  0  0  0  0  0
    9.0221   47.0145   35.8517 O   0  0  0  0  0  0  0  0  0  0  0  0
    8.2632   44.8369   36.0080 O   0  0  0  0  0  0  0  0  0  0  0  0
    9.0932   47.2164   37.2607 C   0  0  0  0  0  0  0  0  0  0  0  0
    9.6412   48.5884   37.5828 C   0  0  0  0  0  0  0  0  0  0  0  0
    9.3017   49.2606   38.7882 C   0  0  0  0  0  0  0  0  0  0  0  0
   10.5368   49.2057   36.6864 C   0  0  0  0  0  0  0  0  0  0  0  0
    8.4785   48.6465   39.7954 N   0  0  0  0  0  4  0  0  0  0  0  0
    9.7924   50.5589   39.0127 C   0  0  0  0  0  0  0  0  0  0  0  0
   11.0285   50.4870   36.9388 C   0  0  0  0  0  0  0  0  0  0  0  0
    7.6670   49.4258   40.5875 O   0  0  0  0  0  1  0  0  0  0  0  0
    8.6365   47.4453   40.0960 O   0  0  0  0  0  0  0  0  0  0  0  0
   10.6474   51.1671   38.0932 C   0  0  0  0  0  0  0  0  0  0  0  0
    8.8078   40.1913   34.2085 O   0  0  0  0  0  0  0  0  0  0  0  0
   11.2370   40.7908   33.3661 O   0  0  0  0  0  0  0  0  0  0  0  0
   10.9140   40.6851   31.9933 C   0  0  0  0  0  0  0  0  0  0  0  0
   11.5165   39.3774   31.4395 C   0  0  0  0  0  0  0  0  0  0  0  0
   12.7471   39.0855   32.0740 O   0  0  0  0  0  0  0  0  0  0  0  0
   10.6047   38.1867   31.6670 C   0  0  0  0  0  0  0  0  0  0  0  0
   12.9345   37.6791   32.0282 C   0  0  0  0  0  0  0  0  0  0  0  0
    9.6378   38.0917   30.6489 O   0  0  0  0  0  0  0  0  0  0  0  0
   11.5761   37.0129   31.7057 C   0  0  0  0  0  0  0  0  0  0  0  0
   13.4909   37.2177   33.3233 N   0  0  0  0  0  0  0  0  0  0  0  0
   11.6234   36.3372   30.4684 O   0  0  0  0  0  0  0  0  0  0  0  0
   14.4765   36.3272   33.5727 C   0  0  0  0  0  0  0  0  0  0  0  0
   13.1182   37.6316   34.5685 C   0  0  0  0  0  0  0  0  0  0  0  0
   15.2066   35.6138   32.6739 N   0  0  0  0  0  0  0  0  0  0  0  0
   14.6735   36.2276   34.9182 C   0  0  0  0  0  0  0  0  0  0  0  0
   13.8227   37.0457   35.5781 N   0  0  0  0  0  0  0  0  0  0  0  0
   16.1638   34.7593   33.1548 C   0  0  0  0  0  0  0  0  0  0  0  0
   15.6517   35.3492   35.4131 C   0  0  0  0  0  0  0  0  0  0  0  0
   16.3792   34.6309   34.5043 N   0  0  0  0  0  0  0  0  0  0  0  0
   15.9002   35.1934   36.8090 N   0  0  0  0  0  0  0  0  0  0  0  0
    9.8495   44.9836   32.1442 H   0  0  0  0  0  0  0  0  0  0  0  0
   10.8485   46.9502   33.0241 H   0  0  0  0  0  0  0  0  0  0  0  0
   11.1689   46.2209   34.5093 H   0  0  0  0  0  0  0  0  0  0  0  0
    7.7913   44.9795   33.4847 H   0  0  0  0  0  0  0  0  0  0  0  0
    8.4107   46.6458   33.3255 H   0  0  0  0  0  0  0  0  0  0  0  0
    8.0679   47.1053   37.6735 H   0  0  0  0  0  0  0  0  0  0  0  0
    9.7582   46.4500   37.7142 H   0  0  0  0  0  0  0  0  0  0  0  0
   10.8515   48.7017   35.7811 H   0  0  0  0  0  0  0  0  0  0  0  0
    9.5345   51.0924   39.9188 H   0  0  0  0  0  0  0  0  0  0  0  0
   11.7053   50.9546   36.2353 H   0  0  0  0  0  0  0  0  0  0  0  0
   11.0280   52.1621   38.2847 H   0  0  0  0  0  0  0  0  0  0  0  0
    9.8240   40.7211   31.7569 H   0  0  0  0  0  0  0  0  0  0  0  0
   11.3867   41.5416   31.4669 H   0  0  0  0  0  0  0  0  0  0  0  0
   11.6986   39.5014   30.3469 H   0  0  0  0  0  0  0  0  0  0  0  0
   10.1095   38.2770   32.6629 H   0  0  0  0  0  0  0  0  0  0  0  0
   13.6672   37.4546   31.2213 H   0  0  0  0  0  0  0  0  0  0  0  0
    8.9779   37.4157   30.9533 H   0  0  0  0  0  0  0  0  0  0  0  0
   11.2861   36.3041   32.5177 H   0  0  0  0  0  0  0  0  0  0  0  0
   10.8690   35.6918   30.4657 H   0  0  0  0  0  0  0  0  0  0  0  0
   12.3356   38.3587   34.7440 H   0  0  0  0  0  0  0  0  0  0  0  0
   16.7572   34.1786   32.4621 H   0  0  0  0  0  0  0  0  0  0  0  0
   15.3530   35.7358   37.5138 H   0  0  0  0  0  0  0  0  0  0  0  0
   16.6361   34.5315   37.1415 H   0  0  0  0  0  0  0  0  0  0  0  0
  1  2  2  0
  1  3  1  0
  3  4  1  0
  4  5  1  0
  6  1  1  0
  7  6  1  0
  6  8  1  0
  8  9  1  0
  9 10  1  0
  9 11  2  0
 10 12  1  0
 12 13  1  0
 13 14  2  0
 15 13  1  0
 14 16  1  0
 14 17  1  0
 18 15  2  0
 16 19  1  0
 16 20  2  0
 17 21  2  0
 21 18  1  0
  4 22  2  0
  4 23  1  0
 24 23  1  0
 24 25  1  0
 25 26  1  0
 25 27  1  0
 26 28  1  0
 27 29  1  0
 27 30  1  0
 30 28  1  0
 28 31  1  0
 30 32  1  0
 33 31  1  0
 34 31  1  0
 35 33  2  0
 33 36  1  0
 37 34  2  0
 38 35  1  0
 36 39  2  0
 36 37  1  0
 40 38  2  0
 40 39  1  0
 39 41  1  0
  6 42  1  6
  7 43  1  0
  7 44  1  0
  8 45  1  0
  8 46  1  0
 12 47  1  0
 12 48  1  0
 15 49  1  0
 17 50  1  0
 18 51  1  0
 21 52  1  0
 24 53  1  0
 24 54  1  0
 25 55  1  0
 27 56  1  0
 28 57  1  0
 29 58  1  0
 30 59  1  0
 32 60  1  0
 34 61  1  0
 38 62  1  0
 41 63  1  0
 41 64  1  0
M  CHG  3   5  -1  16   1  19  -1
M  END
>  <EmbedRMS>  (491) 
0.08889815247976489

$$$$

     RDKit          3D

 64 67  0  0  0  0  0  0  0  0999 V2000
   10.2829   43.7755   33.8077 C   0  0  0  0  0  0  0  0  0  0  0  0
   11.4087   43.5913   34.3577 O   0  0  0  0  0  0  0  0  0  0  0  0
    9.3667   42.7319   33.7016 O   0  0  0  0  0  0  0  0  0  0  0  0
    9.8860   41.2347   34.2846 P   0  0  0  0  0  5  0  0  0  0  0  0
   10.3662   41.4696   35.8751 O   0  0  0  0  0  1  0  0  0  0  0  0
    9.9536   45.1117   33.2434 C   0  0  2  0  0  0  0  0  0  0  0  0
   11.0724   46.0270   33.4848 N   0  0  0  0  0  0  0  0  0  0  0  0
    8.6406   45.6445   33.8546 C   0  0  0  0  0  0  0  0  0  0  0  0
    8.2201   46.9297   33.2128 C   0  0  0  0  0  0  0  0  0  0  0  0
    7.6661   46.9068   31.9278 O   0  0  0  0  0  0  0  0  0  0  0  0
    8.3914   48.0210   33.8219 O   0  0  0  0  0  0  0  0  0  0  0  0
    7.2323   48.0824   31.2441 C   0  0  0  0  0  0  0  0  0  0  0  0
    5.9808   48.6615   31.8698 C   0  0  0  0  0  0  0  0  0  0  0  0
    5.7288   50.0584   31.8792 C   0  0  0  0  0  0  0  0  0  0  0  0
    5.0292   47.7915   32.4370 C   0  0  0  0  0  0  0  0  0  0  0  0
    6.6039   50.9868   31.2164 N   0  0  0  0  0  4  0  0  0  0  0  0
    4.5832   50.5462   32.5336 C   0  0  0  0  0  0  0  0  0  0  0  0
    3.8889   48.2942   33.0650 C   0  0  0  0  0  0  0  0  0  0  0  0
    7.0803   50.7100   29.9556 O   0  0  0  0  0  1  0  0  0  0  0  0
    6.7743   52.1309   31.6862 O   0  0  0  0  0  0  0  0  0  0  0  0
    3.6725   49.6693   33.1242 C   0  0  0  0  0  0  0  0  0  0  0  0
    8.8089   40.1914   34.2081 O   0  0  0  0  0  0  0  0  0  0  0  0
   11.2385   40.7916   33.3693 O   0  0  0  0  0  0  0  0  0  0  0  0
   10.9187   40.6906   31.9959 C   0  0  0  0  0  0  0  0  0  0  0  0
   11.5174   39.3824   31.4412 C   0  0  0  0  0  0  0  0  0  0  0  0
   12.7494   39.0893   32.0756 O   0  0  0  0  0  0  0  0  0  0  0  0
   10.6036   38.1899   31.6659 C   0  0  0  0  0  0  0  0  0  0  0  0
   12.9401   37.6834   32.0276 C   0  0  0  0  0  0  0  0  0  0  0  0
    9.6376   38.0785   30.6474 O   0  0  0  0  0  0  0  0  0  0  0  0
   11.5803   37.0204   31.6937 C   0  0  0  0  0  0  0  0  0  0  0  0
   13.4902   37.2177   33.3237 N   0  0  0  0  0  0  0  0  0  0  0  0
   11.6118   36.3193   30.4680 O   0  0  0  0  0  0  0  0  0  0  0  0
   14.4759   36.3271   33.5731 C   0  0  0  0  0  0  0  0  0  0  0  0
   13.1176   37.6317   34.5688 C   0  0  0  0  0  0  0  0  0  0  0  0
   15.2064   35.6142   32.6742 N   0  0  0  0  0  0  0  0  0  0  0  0
   14.6729   36.2274   34.9184 C   0  0  0  0  0  0  0  0  0  0  0  0
   13.8221   37.0457   35.5783 N   0  0  0  0  0  0  0  0  0  0  0  0
   16.1637   34.7597   33.1549 C   0  0  0  0  0  0  0  0  0  0  0  0
   15.6514   35.3493   35.4133 C   0  0  0  0  0  0  0  0  0  0  0  0
   16.3791   34.6312   34.5044 N   0  0  0  0  0  0  0  0  0  0  0  0
   15.9001   35.1935   36.8091 N   0  0  0  0  0  0  0  0  0  0  0  0
    9.8210   44.9850   32.1457 H   0  0  0  0  0  0  0  0  0  0  0  0
   10.9384   46.8877   32.9061 H   0  0  0  0  0  0  0  0  0  0  0  0
   11.0799   46.3207   34.4894 H   0  0  0  0  0  0  0  0  0  0  0  0
    7.8260   44.9042   33.6989 H   0  0  0  0  0  0  0  0  0  0  0  0
    8.7573   45.7884   34.9517 H   0  0  0  0  0  0  0  0  0  0  0  0
    7.0106   47.8185   30.1891 H   0  0  0  0  0  0  0  0  0  0  0  0
    8.0660   48.8161   31.2508 H   0  0  0  0  0  0  0  0  0  0  0  0
    5.1752   46.7189   32.4077 H   0  0  0  0  0  0  0  0  0  0  0  0
    4.3801   51.6093   32.5616 H   0  0  0  0  0  0  0  0  0  0  0  0
    3.1729   47.6152   33.5099 H   0  0  0  0  0  0  0  0  0  0  0  0
    2.7887   50.0567   33.6145 H   0  0  0  0  0  0  0  0  0  0  0  0
    9.8307   40.7395   31.7563 H   0  0  0  0  0  0  0  0  0  0  0  0
   11.3992   41.5454   31.4737 H   0  0  0  0  0  0  0  0  0  0  0  0
   11.6989   39.5090   30.3489 H   0  0  0  0  0  0  0  0  0  0  0  0
   10.1130   38.2589   32.6664 H   0  0  0  0  0  0  0  0  0  0  0  0
   13.6800   37.4628   31.2265 H   0  0  0  0  0  0  0  0  0  0  0  0
    8.8952   38.6908   30.8891 H   0  0  0  0  0  0  0  0  0  0  0  0
   11.2830   36.3060   32.4929 H   0  0  0  0  0  0  0  0  0  0  0  0
   11.8859   36.9589   29.7593 H   0  0  0  0  0  0  0  0  0  0  0  0
   12.3360   38.3600   34.7442 H   0  0  0  0  0  0  0  0  0  0  0  0
   16.7573   34.1793   32.4621 H   0  0  0  0  0  0  0  0  0  0  0  0
   15.3528   35.7356   37.5140 H   0  0  0  0  0  0  0  0  0  0  0  0
   16.6362   34.5318   37.1416 H   0  0  0  0  0  0  0  0  0  0  0  0
  1  2  2  0
  1  3  1  0
  3  4  1  0
  4  5  1  0
  6  1  1  0
  7  6  1  0
  6  8  1  0
  8  9  1  0
  9 10  1  0
  9 11  2  0
 10 12  1  0
 12 13  1  0
 13 14  2  0
 15 13  1  0
 14 16  1  0
 14 17  1  0
 18 15  2  0
 16 19  1  0
 16 20  2  0
 17 21  2  0
 21 18  1  0
  4 22  2  0
  4 23  1  0
 24 23  1  0
 24 25  1  0
 25 26  1  0
 25 27  1  0
 26 28  1  0
 27 29  1  0
 27 30  1  0
 30 28  1  0
 28 31  1  0
 30 32  1  0
 33 31  1  0
 34 31  1  0
 35 33  2  0
 33 36  1  0
 37 34  2  0
 38 35  1  0
 36 39  2  0
 36 37  1  0
 40 38  2  0
 40 39  1  0
 39 41  1  0
  6 42  1  6
  7 43  1  0
  7 44  1  0
  8 45  1  0
  8 46  1  0
 12 47  1  0
 12 48  1  0
 15 49  1  0
 17 50  1  0
 18 51  1  0
 21 52  1  0
 24 53  1  0
 24 54  1  0
 25 55  1  0
 27 56  1  0
 28 57  1  0
 29 58  1  0
 30 59  1  0
 32 60  1  0
 34 61  1  0
 38 62  1  0
 41 63  1  0
 41 64  1  0
M  CHG  3   5  -1  16   1  19  -1
M  END
>  <EmbedRMS>  (492) 
0.0880357036752664

$$$$

     RDKit          3D

 64 67  0  0  0  0  0  0  0  0999 V2000
   10.2842   43.7744   33.8070 C   0  0  0  0  0  0  0  0  0  0  0  0
   11.4067   43.5904   34.3637 O   0  0  0  0  0  0  0  0  0  0  0  0
    9.3678   42.7312   33.6991 O   0  0  0  0  0  0  0  0  0  0  0  0
    9.8859   41.2343   34.2835 P   0  0  0  0  0  5  0  0  0  0  0  0
   10.3666   41.4696   35.8740 O   0  0  0  0  0  1  0  0  0  0  0  0
    9.9493   45.1164   33.2543 C   0  0  2  0  0  0  0  0  0  0  0  0
   11.0754   46.0281   33.4733 N   0  0  0  0  0  0  0  0  0  0  0  0
    8.6776   45.6538   33.9404 C   0  0  0  0  0  0  0  0  0  0  0  0
    8.1769   46.9003   33.2784 C   0  0  0  0  0  0  0  0  0  0  0  0
    8.4917   48.1456   33.8290 O   0  0  0  0  0  0  0  0  0  0  0  0
    7.5040   46.8180   32.2146 O   0  0  0  0  0  0  0  0  0  0  0  0
    8.0793   49.3755   33.2381 C   0  0  0  0  0  0  0  0  0  0  0  0
    8.5577   50.5568   34.0523 C   0  0  0  0  0  0  0  0  0  0  0  0
    8.7843   51.8269   33.4553 C   0  0  0  0  0  0  0  0  0  0  0  0
    8.7561   50.4103   35.4400 C   0  0  0  0  0  0  0  0  0  0  0  0
    8.5051   52.0750   32.0661 N   0  0  0  0  0  4  0  0  0  0  0  0
    9.2854   52.8774   34.2440 C   0  0  0  0  0  0  0  0  0  0  0  0
    9.2348   51.4725   36.2081 C   0  0  0  0  0  0  0  0  0  0  0  0
    9.2524   52.9970   31.3698 O   0  0  0  0  0  1  0  0  0  0  0  0
    7.4733   51.6146   31.5356 O   0  0  0  0  0  0  0  0  0  0  0  0
    9.5104   52.6996   35.6093 C   0  0  0  0  0  0  0  0  0  0  0  0
    8.8082   40.1915   34.2082 O   0  0  0  0  0  0  0  0  0  0  0  0
   11.2373   40.7909   33.3668 O   0  0  0  0  0  0  0  0  0  0  0  0
   10.9138   40.6860   31.9943 C   0  0  0  0  0  0  0  0  0  0  0  0
   11.5171   39.3797   31.4408 C   0  0  0  0  0  0  0  0  0  0  0  0
   12.7488   39.0885   32.0761 O   0  0  0  0  0  0  0  0  0  0  0  0
   10.6052   38.1876   31.6659 C   0  0  0  0  0  0  0  0  0  0  0  0
   12.9412   37.6828   32.0278 C   0  0  0  0  0  0  0  0  0  0  0  0
    9.6359   38.0930   30.6503 O   0  0  0  0  0  0  0  0  0  0  0  0
   11.5827   37.0179   31.6936 C   0  0  0  0  0  0  0  0  0  0  0  0
   13.4909   37.2176   33.3239 N   0  0  0  0  0  0  0  0  0  0  0  0
   11.6140   36.3180   30.4675 O   0  0  0  0  0  0  0  0  0  0  0  0
   14.4763   36.3269   33.5733 C   0  0  0  0  0  0  0  0  0  0  0  0
   13.1179   37.6316   34.5689 C   0  0  0  0  0  0  0  0  0  0  0  0
   15.2067   35.6140   32.6743 N   0  0  0  0  0  0  0  0  0  0  0  0
   14.6731   36.2272   34.9186 C   0  0  0  0  0  0  0  0  0  0  0  0
   13.8223   37.0456   35.5785 N   0  0  0  0  0  0  0  0  0  0  0  0
   16.1639   34.7595   33.1550 C   0  0  0  0  0  0  0  0  0  0  0  0
   15.6515   35.3491   35.4134 C   0  0  0  0  0  0  0  0  0  0  0  0
   16.3793   34.6310   34.5045 N   0  0  0  0  0  0  0  0  0  0  0  0
   15.9002   35.1933   36.8093 N   0  0  0  0  0  0  0  0  0  0  0  0
    9.7645   45.0043   32.1616 H   0  0  0  0  0  0  0  0  0  0  0  0
   11.8960   45.6765   32.9266 H   0  0  0  0  0  0  0  0  0  0  0  0
   10.8466   46.9550   33.0474 H   0  0  0  0  0  0  0  0  0  0  0  0
    8.8862   45.8631   35.0126 H   0  0  0  0  0  0  0  0  0  0  0  0
    7.8682   44.8921   33.8974 H   0  0  0  0  0  0  0  0  0  0  0  0
    6.9701   49.4057   33.1770 H   0  0  0  0  0  0  0  0  0  0  0  0
    8.5059   49.4221   32.2132 H   0  0  0  0  0  0  0  0  0  0  0  0
    8.5507   49.4689   35.9337 H   0  0  0  0  0  0  0  0  0  0  0  0
    9.4765   53.8484   33.8050 H   0  0  0  0  0  0  0  0  0  0  0  0
    9.3949   51.3422   37.2706 H   0  0  0  0  0  0  0  0  0  0  0  0
    9.8846   53.5207   36.2072 H   0  0  0  0  0  0  0  0  0  0  0  0
   11.3859   41.5432   31.4683 H   0  0  0  0  0  0  0  0  0  0  0  0
    9.8237   40.7211   31.7578 H   0  0  0  0  0  0  0  0  0  0  0  0
   11.6996   39.5063   30.3486 H   0  0  0  0  0  0  0  0  0  0  0  0
   10.1121   38.2723   32.6632 H   0  0  0  0  0  0  0  0  0  0  0  0
   13.6817   37.4631   31.2269 H   0  0  0  0  0  0  0  0  0  0  0  0
    9.0037   37.3828   30.9349 H   0  0  0  0  0  0  0  0  0  0  0  0
   11.2846   36.3040   32.4928 H   0  0  0  0  0  0  0  0  0  0  0  0
   11.8850   36.9590   29.7588 H   0  0  0  0  0  0  0  0  0  0  0  0
   12.3363   38.3599   34.7441 H   0  0  0  0  0  0  0  0  0  0  0  0
   16.7574   34.1790   32.4623 H   0  0  0  0  0  0  0  0  0  0  0  0
   16.6363   34.5316   37.1418 H   0  0  0  0  0  0  0  0  0  0  0  0
   15.3529   35.7355   37.5141 H   0  0  0  0  0  0  0  0  0  0  0  0
  1  2  2  0
  1  3  1  0
  3  4  1  0
  4  5  1  0
  6  1  1  0
  7  6  1  0
  6  8  1  0
  8  9  1  0
  9 10  1  0
  9 11  2  0
 10 12  1  0
 12 13  1  0
 13 14  2  0
 15 13  1  0
 14 16  1  0
 14 17  1  0
 18 15  2  0
 16 19  1  0
 16 20  2  0
 17 21  2  0
 21 18  1  0
  4 22  2  0
  4 23  1  0
 24 23  1  0
 24 25  1  0
 25 26  1  0
 25 27  1  0
 26 28  1  0
 27 29  1  0
 27 30  1  0
 30 28  1  0
 28 31  1  0
 30 32  1  0
 33 31  1  0
 34 31  1  0
 35 33  2  0
 33 36  1  0
 37 34  2  0
 38 35  1  0
 36 39  2  0
 36 37  1  0
 40 38  2  0
 40 39  1  0
 39 41  1  0
  6 42  1  6
  7 43  1  0
  7 44  1  0
  8 45  1  0
  8 46  1  0
 12 47  1  0
 12 48  1  0
 15 49  1  0
 17 50  1  0
 18 51  1  0
 21 52  1  0
 24 53  1  0
 24 54  1  0
 25 55  1  0
 27 56  1  0
 28 57  1  0
 29 58  1  0
 30 59  1  0
 32 60  1  0
 34 61  1  0
 38 62  1  0
 41 63  1  0
 41 64  1  0
M  CHG  3   5  -1  16   1  19  -1
M  END
>  <EmbedRMS>  (493) 
0.0879378737364143

$$$$

     RDKit          3D

 64 67  0  0  0  0  0  0  0  0999 V2000
   10.2807   43.7765   33.8101 C   0  0  0  0  0  0  0  0  0  0  0  0
   11.4068   43.5922   34.3595 O   0  0  0  0  0  0  0  0  0  0  0  0
    9.3680   42.7305   33.7013 O   0  0  0  0  0  0  0  0  0  0  0  0
    9.8872   41.2340   34.2836 P   0  0  0  0  0  5  0  0  0  0  0  0
   10.3681   41.4690   35.8740 O   0  0  0  0  0  1  0  0  0  0  0  0
    9.9545   45.1154   33.2410 C   0  0  2  0  0  0  0  0  0  0  0  0
   11.0734   46.0274   33.4843 N   0  0  0  0  0  0  0  0  0  0  0  0
    8.6492   45.6902   33.8357 C   0  0  0  0  0  0  0  0  0  0  0  0
    7.4431   44.9213   33.3878 C   0  0  0  0  0  0  0  0  0  0  0  0
    7.1197   44.8791   32.0289 O   0  0  0  0  0  0  0  0  0  0  0  0
    6.7404   44.3058   34.2356 O   0  0  0  0  0  0  0  0  0  0  0  0
    6.0599   44.0788   31.5173 C   0  0  0  0  0  0  0  0  0  0  0  0
    6.0134   44.2059   30.0169 C   0  0  0  0  0  0  0  0  0  0  0  0
    6.8498   43.4344   29.1655 C   0  0  0  0  0  0  0  0  0  0  0  0
    5.1088   45.1201   29.4477 C   0  0  0  0  0  0  0  0  0  0  0  0
    7.8349   42.5235   29.6853 N   0  0  0  0  0  4  0  0  0  0  0  0
    6.7102   43.5614   27.7721 C   0  0  0  0  0  0  0  0  0  0  0  0
    4.9995   45.2437   28.0620 C   0  0  0  0  0  0  0  0  0  0  0  0
    8.1771   41.3990   28.9700 O   0  0  0  0  0  1  0  0  0  0  0  0
    8.5187   42.8301   30.6827 O   0  0  0  0  0  0  0  0  0  0  0  0
    5.7928   44.4603   27.2259 C   0  0  0  0  0  0  0  0  0  0  0  0
    8.8089   40.1918   34.2083 O   0  0  0  0  0  0  0  0  0  0  0  0
   11.2380   40.7911   33.3652 O   0  0  0  0  0  0  0  0  0  0  0  0
   10.9122   40.6830   31.9933 C   0  0  0  0  0  0  0  0  0  0  0  0
   11.5165   39.3769   31.4392 C   0  0  0  0  0  0  0  0  0  0  0  0
   12.7470   39.0854   32.0740 O   0  0  0  0  0  0  0  0  0  0  0  0
   10.6048   38.1862   31.6665 C   0  0  0  0  0  0  0  0  0  0  0  0
   12.9346   37.6791   32.0282 C   0  0  0  0  0  0  0  0  0  0  0  0
    9.6379   38.0916   30.6483 O   0  0  0  0  0  0  0  0  0  0  0  0
   11.5763   37.0126   31.7053 C   0  0  0  0  0  0  0  0  0  0  0  0
   13.4909   37.2177   33.3233 N   0  0  0  0  0  0  0  0  0  0  0  0
   11.6237   36.3370   30.4680 O   0  0  0  0  0  0  0  0  0  0  0  0
   14.4765   36.3271   33.5727 C   0  0  0  0  0  0  0  0  0  0  0  0
   13.1182   37.6315   34.5685 C   0  0  0  0  0  0  0  0  0  0  0  0
   15.2066   35.6137   32.6739 N   0  0  0  0  0  0  0  0  0  0  0  0
   14.6735   36.2276   34.9182 C   0  0  0  0  0  0  0  0  0  0  0  0
   13.8227   37.0457   35.5781 N   0  0  0  0  0  0  0  0  0  0  0  0
   16.1638   34.7593   33.1548 C   0  0  0  0  0  0  0  0  0  0  0  0
   15.6517   35.3493   35.4131 C   0  0  0  0  0  0  0  0  0  0  0  0
   16.3792   34.6309   34.5043 N   0  0  0  0  0  0  0  0  0  0  0  0
   15.9002   35.1934   36.8090 N   0  0  0  0  0  0  0  0  0  0  0  0
    9.8367   44.9973   32.1408 H   0  0  0  0  0  0  0  0  0  0  0  0
   11.1017   46.2860   34.4985 H   0  0  0  0  0  0  0  0  0  0  0  0
   10.9096   46.9087   32.9448 H   0  0  0  0  0  0  0  0  0  0  0  0
    8.7077   45.6963   34.9469 H   0  0  0  0  0  0  0  0  0  0  0  0
    8.5230   46.7421   33.5006 H   0  0  0  0  0  0  0  0  0  0  0  0
    5.0979   44.4087   31.9676 H   0  0  0  0  0  0  0  0  0  0  0  0
    6.2080   43.0159   31.8070 H   0  0  0  0  0  0  0  0  0  0  0  0
    4.4762   45.7323   30.0788 H   0  0  0  0  0  0  0  0  0  0  0  0
    7.3310   42.9776   27.1043 H   0  0  0  0  0  0  0  0  0  0  0  0
    4.2940   45.9453   27.6357 H   0  0  0  0  0  0  0  0  0  0  0  0
    5.7033   44.5555   26.1514 H   0  0  0  0  0  0  0  0  0  0  0  0
   11.3778   41.5417   31.4640 H   0  0  0  0  0  0  0  0  0  0  0  0
    9.8215   40.7097   31.7615 H   0  0  0  0  0  0  0  0  0  0  0  0
   11.6985   39.5015   30.3467 H   0  0  0  0  0  0  0  0  0  0  0  0
   10.1096   38.2761   32.6625 H   0  0  0  0  0  0  0  0  0  0  0  0
   13.6674   37.4547   31.2213 H   0  0  0  0  0  0  0  0  0  0  0  0
    8.9768   37.4171   30.9534 H   0  0  0  0  0  0  0  0  0  0  0  0
   11.2863   36.3037   32.5172 H   0  0  0  0  0  0  0  0  0  0  0  0
   10.8689   35.6922   30.4650 H   0  0  0  0  0  0  0  0  0  0  0  0
   12.3355   38.3587   34.7439 H   0  0  0  0  0  0  0  0  0  0  0  0
   16.7572   34.1786   32.4621 H   0  0  0  0  0  0  0  0  0  0  0  0
   15.3530   35.7358   37.5138 H   0  0  0  0  0  0  0  0  0  0  0  0
   16.6361   34.5315   37.1415 H   0  0  0  0  0  0  0  0  0  0  0  0
  1  2  2  0
  1  3  1  0
  3  4  1  0
  4  5  1  0
  6  1  1  0
  7  6  1  0
  6  8  1  0
  8  9  1  0
  9 10  1  0
  9 11  2  0
 10 12  1  0
 12 13  1  0
 13 14  2  0
 15 13  1  0
 14 16  1  0
 14 17  1  0
 18 15  2  0
 16 19  1  0
 16 20  2  0
 17 21  2  0
 21 18  1  0
  4 22  2  0
  4 23  1  0
 24 23  1  0
 24 25  1  0
 25 26  1  0
 25 27  1  0
 26 28  1  0
 27 29  1  0
 27 30  1  0
 30 28  1  0
 28 31  1  0
 30 32  1  0
 33 31  1  0
 34 31  1  0
 35 33  2  0
 33 36  1  0
 37 34  2  0
 38 35  1  0
 36 39  2  0
 36 37  1  0
 40 38  2  0
 40 39  1  0
 39 41  1  0
  6 42  1  6
  7 43  1  0
  7 44  1  0
  8 45  1  0
  8 46  1  0
 12 47  1  0
 12 48  1  0
 15 49  1  0
 17 50  1  0
 18 51  1  0
 21 52  1  0
 24 53  1  0
 24 54  1  0
 25 55  1  0
 27 56  1  0
 28 57  1  0
 29 58  1  0
 30 59  1  0
 32 60  1  0
 34 61  1  0
 38 62  1  0
 41 63  1  0
 41 64  1  0
M  CHG  3   5  -1  16   1  19  -1
M  END
>  <EmbedRMS>  (494) 
0.08895190513924563

$$$$

     RDKit          3D

 64 67  0  0  0  0  0  0  0  0999 V2000
   10.2843   43.7743   33.8069 C   0  0  0  0  0  0  0  0  0  0  0  0
   11.4068   43.5903   34.3635 O   0  0  0  0  0  0  0  0  0  0  0  0
    9.3678   42.7312   33.6990 O   0  0  0  0  0  0  0  0  0  0  0  0
    9.8859   41.2343   34.2835 P   0  0  0  0  0  5  0  0  0  0  0  0
   10.3666   41.4696   35.8740 O   0  0  0  0  0  1  0  0  0  0  0  0
    9.9492   45.1164   33.2546 C   0  0  2  0  0  0  0  0  0  0  0  0
   11.0754   46.0281   33.4734 N   0  0  0  0  0  0  0  0  0  0  0  0
    8.6779   45.6535   33.9415 C   0  0  0  0  0  0  0  0  0  0  0  0
    8.1800   46.9038   33.2849 C   0  0  0  0  0  0  0  0  0  0  0  0
    8.4528   48.1446   33.8712 O   0  0  0  0  0  0  0  0  0  0  0  0
    7.5438   46.8284   32.1988 O   0  0  0  0  0  0  0  0  0  0  0  0
    8.0316   49.3886   33.3134 C   0  0  0  0  0  0  0  0  0  0  0  0
    6.5297   49.5392   33.4032 C   0  0  0  0  0  0  0  0  0  0  0  0
    5.7307   49.9337   32.2984 C   0  0  0  0  0  0  0  0  0  0  0  0
    5.9236   49.3775   34.6625 C   0  0  0  0  0  0  0  0  0  0  0  0
    6.2869   50.1099   30.9872 N   0  0  0  0  0  4  0  0  0  0  0  0
    4.3563   50.1598   32.4886 C   0  0  0  0  0  0  0  0  0  0  0  0
    4.5541   49.5896   34.8280 C   0  0  0  0  0  0  0  0  0  0  0  0
    6.9648   49.0761   30.3844 O   0  0  0  0  0  1  0  0  0  0  0  0
    5.9424   51.0890   30.2938 O   0  0  0  0  0  0  0  0  0  0  0  0
    3.7723   49.9831   33.7436 C   0  0  0  0  0  0  0  0  0  0  0  0
    8.8082   40.1915   34.2082 O   0  0  0  0  0  0  0  0  0  0  0  0
   11.2372   40.7909   33.3668 O   0  0  0  0  0  0  0  0  0  0  0  0
   10.9138   40.6860   31.9943 C   0  0  0  0  0  0  0  0  0  0  0  0
   11.5171   39.3796   31.4408 C   0  0  0  0  0  0  0  0  0  0  0  0
   12.7488   39.0885   32.0761 O   0  0  0  0  0  0  0  0  0  0  0  0
   10.6052   38.1876   31.6659 C   0  0  0  0  0  0  0  0  0  0  0  0
   12.9412   37.6828   32.0278 C   0  0  0  0  0  0  0  0  0  0  0  0
    9.6358   38.0930   30.6503 O   0  0  0  0  0  0  0  0  0  0  0  0
   11.5827   37.0179   31.6936 C   0  0  0  0  0  0  0  0  0  0  0  0
   13.4909   37.2176   33.3239 N   0  0  0  0  0  0  0  0  0  0  0  0
   11.6140   36.3179   30.4675 O   0  0  0  0  0  0  0  0  0  0  0  0
   14.4763   36.3270   33.5733 C   0  0  0  0  0  0  0  0  0  0  0  0
   13.1179   37.6316   34.5689 C   0  0  0  0  0  0  0  0  0  0  0  0
   15.2067   35.6140   32.6744 N   0  0  0  0  0  0  0  0  0  0  0  0
   14.6731   36.2272   34.9186 C   0  0  0  0  0  0  0  0  0  0  0  0
   13.8223   37.0456   35.5785 N   0  0  0  0  0  0  0  0  0  0  0  0
   16.1639   34.7595   33.1551 C   0  0  0  0  0  0  0  0  0  0  0  0
   15.6515   35.3491   35.4134 C   0  0  0  0  0  0  0  0  0  0  0  0
   16.3793   34.6310   34.5045 N   0  0  0  0  0  0  0  0  0  0  0  0
   15.9002   35.1933   36.8093 N   0  0  0  0  0  0  0  0  0  0  0  0
    9.7640   45.0047   32.1620 H   0  0  0  0  0  0  0  0  0  0  0  0
   11.8951   45.6778   32.9247 H   0  0  0  0  0  0  0  0  0  0  0  0
   10.8452   46.9558   33.0500 H   0  0  0  0  0  0  0  0  0  0  0  0
    8.8854   45.8568   35.0151 H   0  0  0  0  0  0  0  0  0  0  0  0
    7.8669   44.8939   33.8934 H   0  0  0  0  0  0  0  0  0  0  0  0
    8.4961   50.2085   33.9005 H   0  0  0  0  0  0  0  0  0  0  0  0
    8.4232   49.4818   32.2823 H   0  0  0  0  0  0  0  0  0  0  0  0
    6.5179   49.0965   35.5235 H   0  0  0  0  0  0  0  0  0  0  0  0
    3.7331   50.4600   31.6555 H   0  0  0  0  0  0  0  0  0  0  0  0
    4.1005   49.4590   35.8021 H   0  0  0  0  0  0  0  0  0  0  0  0
    2.7114   50.1527   33.8753 H   0  0  0  0  0  0  0  0  0  0  0  0
   11.3858   41.5432   31.4683 H   0  0  0  0  0  0  0  0  0  0  0  0
    9.8237   40.7211   31.7578 H   0  0  0  0  0  0  0  0  0  0  0  0
   11.6995   39.5063   30.3486 H   0  0  0  0  0  0  0  0  0  0  0  0
   10.1121   38.2723   32.6632 H   0  0  0  0  0  0  0  0  0  0  0  0
   13.6816   37.4631   31.2269 H   0  0  0  0  0  0  0  0  0  0  0  0
    9.0037   37.3828   30.9349 H   0  0  0  0  0  0  0  0  0  0  0  0
   11.2846   36.3040   32.4928 H   0  0  0  0  0  0  0  0  0  0  0  0
   11.8849   36.9590   29.7588 H   0  0  0  0  0  0  0  0  0  0  0  0
   12.3363   38.3599   34.7441 H   0  0  0  0  0  0  0  0  0  0  0  0
   16.7574   34.1790   32.4623 H   0  0  0  0  0  0  0  0  0  0  0  0
   15.3529   35.7355   37.5141 H   0  0  0  0  0  0  0  0  0  0  0  0
   16.6363   34.5317   37.1418 H   0  0  0  0  0  0  0  0  0  0  0  0
  1  2  2  0
  1  3  1  0
  3  4  1  0
  4  5  1  0
  6  1  1  0
  7  6  1  0
  6  8  1  0
  8  9  1  0
  9 10  1  0
  9 11  2  0
 10 12  1  0
 12 13  1  0
 13 14  2  0
 15 13  1  0
 14 16  1  0
 14 17  1  0
 18 15  2  0
 16 19  1  0
 16 20  2  0
 17 21  2  0
 21 18  1  0
  4 22  2  0
  4 23  1  0
 24 23  1  0
 24 25  1  0
 25 26  1  0
 25 27  1  0
 26 28  1  0
 27 29  1  0
 27 30  1  0
 30 28  1  0
 28 31  1  0
 30 32  1  0
 33 31  1  0
 34 31  1  0
 35 33  2  0
 33 36  1  0
 37 34  2  0
 38 35  1  0
 36 39  2  0
 36 37  1  0
 40 38  2  0
 40 39  1  0
 39 41  1  0
  6 42  1  6
  7 43  1  0
  7 44  1  0
  8 45  1  0
  8 46  1  0
 12 47  1  0
 12 48  1  0
 15 49  1  0
 17 50  1  0
 18 51  1  0
 21 52  1  0
 24 53  1  0
 24 54  1  0
 25 55  1  0
 27 56  1  0
 28 57  1  0
 29 58  1  0
 30 59  1  0
 32 60  1  0
 34 61  1  0
 38 62  1  0
 41 63  1  0
 41 64  1  0
M  CHG  3   5  -1  16   1  19  -1
M  END
>  <EmbedRMS>  (495) 
0.08793123287613583

$$$$

     RDKit          3D

 64 67  0  0  0  0  0  0  0  0999 V2000
   10.2862   43.7710   33.8098 C   0  0  0  0  0  0  0  0  0  0  0  0
   11.4100   43.5817   34.3614 O   0  0  0  0  0  0  0  0  0  0  0  0
    9.3665   42.7311   33.7022 O   0  0  0  0  0  0  0  0  0  0  0  0
    9.8842   41.2332   34.2846 P   0  0  0  0  0  5  0  0  0  0  0  0
   10.3652   41.4679   35.8751 O   0  0  0  0  0  1  0  0  0  0  0  0
    9.9608   45.1122   33.2471 C   0  0  2  0  0  0  0  0  0  0  0  0
   11.0655   46.0482   33.4751 N   0  0  0  0  0  0  0  0  0  0  0  0
    8.6634   45.6559   33.8692 C   0  0  0  0  0  0  0  0  0  0  0  0
    8.2972   46.9764   33.2681 C   0  0  0  0  0  0  0  0  0  0  0  0
    8.7493   48.1531   33.8744 O   0  0  0  0  0  0  0  0  0  0  0  0
    7.6294   47.0145   32.1990 O   0  0  0  0  0  0  0  0  0  0  0  0
    8.6660   49.4369   33.2599 C   0  0  0  0  0  0  0  0  0  0  0  0
    9.6768   49.5512   32.1432 C   0  0  0  0  0  0  0  0  0  0  0  0
   11.0578   49.7890   32.3880 C   0  0  0  0  0  0  0  0  0  0  0  0
    9.2276   49.4177   30.8165 C   0  0  0  0  0  0  0  0  0  0  0  0
   11.5905   49.9268   33.7190 N   0  0  0  0  0  4  0  0  0  0  0  0
   11.9326   49.9159   31.2937 C   0  0  0  0  0  0  0  0  0  0  0  0
   10.1166   49.5323   29.7476 C   0  0  0  0  0  0  0  0  0  0  0  0
   12.7061   50.7032   33.9341 O   0  0  0  0  0  1  0  0  0  0  0  0
   11.1602   49.2268   34.6578 O   0  0  0  0  0  0  0  0  0  0  0  0
   11.4656   49.7844   29.9855 C   0  0  0  0  0  0  0  0  0  0  0  0
    8.8068   40.1904   34.2083 O   0  0  0  0  0  0  0  0  0  0  0  0
   11.2363   40.7902   33.3689 O   0  0  0  0  0  0  0  0  0  0  0  0
   10.9152   40.6897   31.9959 C   0  0  0  0  0  0  0  0  0  0  0  0
   11.5269   39.3898   31.4373 C   0  0  0  0  0  0  0  0  0  0  0  0
   12.7506   39.0917   32.0839 O   0  0  0  0  0  0  0  0  0  0  0  0
   10.6121   38.1915   31.6452 C   0  0  0  0  0  0  0  0  0  0  0  0
   12.9429   37.6853   32.0295 C   0  0  0  0  0  0  0  0  0  0  0  0
    9.6069   38.0857   30.6602 O   0  0  0  0  0  0  0  0  0  0  0  0
   11.5845   37.0186   31.6879 C   0  0  0  0  0  0  0  0  0  0  0  0
   13.4899   37.2163   33.3250 N   0  0  0  0  0  0  0  0  0  0  0  0
   11.6202   36.3062   30.4693 O   0  0  0  0  0  0  0  0  0  0  0  0
   14.4759   36.3263   33.5738 C   0  0  0  0  0  0  0  0  0  0  0  0
   13.1176   37.6308   34.5699 C   0  0  0  0  0  0  0  0  0  0  0  0
   15.2065   35.6139   32.6746 N   0  0  0  0  0  0  0  0  0  0  0  0
   14.6731   36.2267   34.9191 C   0  0  0  0  0  0  0  0  0  0  0  0
   13.8224   37.0450   35.5792 N   0  0  0  0  0  0  0  0  0  0  0  0
   16.1640   34.7596   33.1551 C   0  0  0  0  0  0  0  0  0  0  0  0
   15.6517   35.3489   35.4136 C   0  0  0  0  0  0  0  0  0  0  0  0
   16.3795   34.6310   34.5046 N   0  0  0  0  0  0  0  0  0  0  0  0
   15.9006   35.1931   36.8094 N   0  0  0  0  0  0  0  0  0  0  0  0
    9.8111   44.9956   32.1507 H   0  0  0  0  0  0  0  0  0  0  0  0
   11.2746   46.1195   34.4985 H   0  0  0  0  0  0  0  0  0  0  0  0
   11.9223   45.7040   32.9826 H   0  0  0  0  0  0  0  0  0  0  0  0
    7.8298   44.9400   33.6968 H   0  0  0  0  0  0  0  0  0  0  0  0
    8.7877   45.7752   34.9679 H   0  0  0  0  0  0  0  0  0  0  0  0
    8.8633   50.2188   34.0226 H   0  0  0  0  0  0  0  0  0  0  0  0
    7.6308   49.6140   32.8935 H   0  0  0  0  0  0  0  0  0  0  0  0
    8.1818   49.2316   30.6059 H   0  0  0  0  0  0  0  0  0  0  0  0
   12.9871   50.1011   31.4541 H   0  0  0  0  0  0  0  0  0  0  0  0
    9.7571   49.4295   28.7318 H   0  0  0  0  0  0  0  0  0  0  0  0
   12.1528   49.8758   29.1543 H   0  0  0  0  0  0  0  0  0  0  0  0
   11.3823   41.5526   31.4747 H   0  0  0  0  0  0  0  0  0  0  0  0
    9.8251   40.7190   31.7585 H   0  0  0  0  0  0  0  0  0  0  0  0
   11.7317   39.5338   30.3520 H   0  0  0  0  0  0  0  0  0  0  0  0
   10.1214   38.2681   32.6412 H   0  0  0  0  0  0  0  0  0  0  0  0
   13.6882   37.4709   31.2319 H   0  0  0  0  0  0  0  0  0  0  0  0
   10.0256   38.1750   29.7656 H   0  0  0  0  0  0  0  0  0  0  0  0
   11.2796   36.3123   32.4915 H   0  0  0  0  0  0  0  0  0  0  0  0
   11.9872   36.9099   29.7714 H   0  0  0  0  0  0  0  0  0  0  0  0
   12.3365   38.3596   34.7453 H   0  0  0  0  0  0  0  0  0  0  0  0
   16.7576   34.1794   32.4622 H   0  0  0  0  0  0  0  0  0  0  0  0
   15.3532   35.7351   37.5143 H   0  0  0  0  0  0  0  0  0  0  0  0
   16.6368   34.5316   37.1418 H   0  0  0  0  0  0  0  0  0  0  0  0
  1  2  2  0
  1  3  1  0
  3  4  1  0
  4  5  1  0
  6  1  1  0
  7  6  1  0
  6  8  1  0
  8  9  1  0
  9 10  1  0
  9 11  2  0
 10 12  1  0
 12 13  1  0
 13 14  2  0
 15 13  1  0
 14 16  1  0
 14 17  1  0
 18 15  2  0
 16 19  1  0
 16 20  2  0
 17 21  2  0
 21 18  1  0
  4 22  2  0
  4 23  1  0
 24 23  1  0
 24 25  1  0
 25 26  1  0
 25 27  1  0
 26 28  1  0
 27 29  1  0
 27 30  1  0
 30 28  1  0
 28 31  1  0
 30 32  1  0
 33 31  1  0
 34 31  1  0
 35 33  2  0
 33 36  1  0
 37 34  2  0
 38 35  1  0
 36 39  2  0
 36 37  1  0
 40 38  2  0
 40 39  1  0
 39 41  1  0
  6 42  1  6
  7 43  1  0
  7 44  1  0
  8 45  1  0
  8 46  1  0
 12 47  1  0
 12 48  1  0
 15 49  1  0
 17 50  1  0
 18 51  1  0
 21 52  1  0
 24 53  1  0
 24 54  1  0
 25 55  1  0
 27 56  1  0
 28 57  1  0
 29 58  1  0
 30 59  1  0
 32 60  1  0
 34 61  1  0
 38 62  1  0
 41 63  1  0
 41 64  1  0
M  CHG  3   5  -1  16   1  19  -1
M  END
>  <EmbedRMS>  (496) 
0.08750156702699158

$$$$

     RDKit          3D

 64 67  0  0  0  0  0  0  0  0999 V2000
   10.2820   43.7759   33.8091 C   0  0  0  0  0  0  0  0  0  0  0  0
   11.4050   43.5927   34.3650 O   0  0  0  0  0  0  0  0  0  0  0  0
    9.3749   42.7267   33.6893 O   0  0  0  0  0  0  0  0  0  0  0  0
    9.8872   41.2326   34.2828 P   0  0  0  0  0  5  0  0  0  0  0  0
   10.3638   41.4718   35.8739 O   0  0  0  0  0  1  0  0  0  0  0  0
    9.9387   45.1276   33.2743 C   0  0  2  0  0  0  0  0  0  0  0  0
   11.0823   46.0224   33.4597 N   0  0  0  0  0  0  0  0  0  0  0  0
    8.7092   45.7151   34.0024 C   0  0  0  0  0  0  0  0  0  0  0  0
    7.4478   44.9794   33.6665 C   0  0  0  0  0  0  0  0  0  0  0  0
    7.0414   43.9166   34.4769 O   0  0  0  0  0  0  0  0  0  0  0  0
    6.7947   45.2890   32.6328 O   0  0  0  0  0  0  0  0  0  0  0  0
    5.9483   43.0623   34.1522 C   0  0  0  0  0  0  0  0  0  0  0  0
    5.9423   41.8429   35.0464 C   0  0  0  0  0  0  0  0  0  0  0  0
    5.4135   40.6016   34.6035 C   0  0  0  0  0  0  0  0  0  0  0  0
    6.4764   41.9324   36.3477 C   0  0  0  0  0  0  0  0  0  0  0  0
    4.7688   40.4697   33.3246 N   0  0  0  0  0  4  0  0  0  0  0  0
    5.5137   39.4742   35.4389 C   0  0  0  0  0  0  0  0  0  0  0  0
    6.5509   40.8053   37.1668 C   0  0  0  0  0  0  0  0  0  0  0  0
    3.9036   41.4421   32.8785 O   0  0  0  0  0  1  0  0  0  0  0  0
    4.8431   39.3953   32.6932 O   0  0  0  0  0  0  0  0  0  0  0  0
    6.0816   39.5763   36.7090 C   0  0  0  0  0  0  0  0  0  0  0  0
    8.8087   40.1909   34.2071 O   0  0  0  0  0  0  0  0  0  0  0  0
   11.2385   40.7865   33.3688 O   0  0  0  0  0  0  0  0  0  0  0  0
   10.9168   40.6874   31.9955 C   0  0  0  0  0  0  0  0  0  0  0  0
   11.5264   39.3867   31.4361 C   0  0  0  0  0  0  0  0  0  0  0  0
   12.7496   39.0888   32.0812 O   0  0  0  0  0  0  0  0  0  0  0  0
   10.6123   38.1893   31.6462 C   0  0  0  0  0  0  0  0  0  0  0  0
   12.9373   37.6822   32.0299 C   0  0  0  0  0  0  0  0  0  0  0  0
    9.6148   38.0839   30.6541 O   0  0  0  0  0  0  0  0  0  0  0  0
   11.5791   37.0135   31.7014 C   0  0  0  0  0  0  0  0  0  0  0  0
   13.4906   37.2168   33.3242 N   0  0  0  0  0  0  0  0  0  0  0  0
   11.6213   36.3251   30.4725 O   0  0  0  0  0  0  0  0  0  0  0  0
   14.4763   36.3266   33.5731 C   0  0  0  0  0  0  0  0  0  0  0  0
   13.1180   37.6307   34.5693 C   0  0  0  0  0  0  0  0  0  0  0  0
   15.2065   35.6136   32.6740 N   0  0  0  0  0  0  0  0  0  0  0  0
   14.6735   36.2270   34.9185 C   0  0  0  0  0  0  0  0  0  0  0  0
   13.8228   37.0451   35.5787 N   0  0  0  0  0  0  0  0  0  0  0  0
   16.1639   34.7593   33.1547 C   0  0  0  0  0  0  0  0  0  0  0  0
   15.6518   35.3489   35.4132 C   0  0  0  0  0  0  0  0  0  0  0  0
   16.3795   34.6308   34.5042 N   0  0  0  0  0  0  0  0  0  0  0  0
   15.9005   35.1931   36.8090 N   0  0  0  0  0  0  0  0  0  0  0  0
    9.7174   45.0375   32.1863 H   0  0  0  0  0  0  0  0  0  0  0  0
   11.8727   45.6753   32.8675 H   0  0  0  0  0  0  0  0  0  0  0  0
   10.8381   46.9610   33.0673 H   0  0  0  0  0  0  0  0  0  0  0  0
    8.5757   46.7804   33.7131 H   0  0  0  0  0  0  0  0  0  0  0  0
    8.8708   45.6894   35.1025 H   0  0  0  0  0  0  0  0  0  0  0  0
    4.9940   43.6173   34.2738 H   0  0  0  0  0  0  0  0  0  0  0  0
    6.0595   42.7461   33.0925 H   0  0  0  0  0  0  0  0  0  0  0  0
    6.8549   42.8725   36.7285 H   0  0  0  0  0  0  0  0  0  0  0  0
    5.1283   38.5160   35.1137 H   0  0  0  0  0  0  0  0  0  0  0  0
    6.9787   40.8847   38.1579 H   0  0  0  0  0  0  0  0  0  0  0  0
    6.1444   38.7029   37.3452 H   0  0  0  0  0  0  0  0  0  0  0  0
   11.3851   41.5499   31.4746 H   0  0  0  0  0  0  0  0  0  0  0  0
    9.8267   40.7182   31.7579 H   0  0  0  0  0  0  0  0  0  0  0  0
   11.7290   39.5286   30.3500 H   0  0  0  0  0  0  0  0  0  0  0  0
   10.1140   38.2721   32.6381 H   0  0  0  0  0  0  0  0  0  0  0  0
   13.6724   37.4626   31.2239 H   0  0  0  0  0  0  0  0  0  0  0  0
   10.0532   38.1085   29.7640 H   0  0  0  0  0  0  0  0  0  0  0  0
   11.2643   36.3133   32.5108 H   0  0  0  0  0  0  0  0  0  0  0  0
   12.1541   35.5028   30.6316 H   0  0  0  0  0  0  0  0  0  0  0  0
   12.3359   38.3584   34.7449 H   0  0  0  0  0  0  0  0  0  0  0  0
   16.7574   34.1788   32.4619 H   0  0  0  0  0  0  0  0  0  0  0  0
   16.6365   34.5314   37.1415 H   0  0  0  0  0  0  0  0  0  0  0  0
   15.3532   35.7353   37.5139 H   0  0  0  0  0  0  0  0  0  0  0  0
  1  2  2  0
  1  3  1  0
  3  4  1  0
  4  5  1  0
  6  1  1  0
  7  6  1  0
  6  8  1  0
  8  9  1  0
  9 10  1  0
  9 11  2  0
 10 12  1  0
 12 13  1  0
 13 14  2  0
 15 13  1  0
 14 16  1  0
 14 17  1  0
 18 15  2  0
 16 19  1  0
 16 20  2  0
 17 21  2  0
 21 18  1  0
  4 22  2  0
  4 23  1  0
 24 23  1  0
 24 25  1  0
 25 26  1  0
 25 27  1  0
 26 28  1  0
 27 29  1  0
 27 30  1  0
 30 28  1  0
 28 31  1  0
 30 32  1  0
 33 31  1  0
 34 31  1  0
 35 33  2  0
 33 36  1  0
 37 34  2  0
 38 35  1  0
 36 39  2  0
 36 37  1  0
 40 38  2  0
 40 39  1  0
 39 41  1  0
  6 42  1  6
  7 43  1  0
  7 44  1  0
  8 45  1  0
  8 46  1  0
 12 47  1  0
 12 48  1  0
 15 49  1  0
 17 50  1  0
 18 51  1  0
 21 52  1  0
 24 53  1  0
 24 54  1  0
 25 55  1  0
 27 56  1  0
 28 57  1  0
 29 58  1  0
 30 59  1  0
 32 60  1  0
 34 61  1  0
 38 62  1  0
 41 63  1  0
 41 64  1  0
M  CHG  3   5  -1  16   1  19  -1
M  END
>  <EmbedRMS>  (497) 
0.08909347827222044

$$$$

     RDKit          3D

 64 67  0  0  0  0  0  0  0  0999 V2000
   10.2802   43.7763   33.8100 C   0  0  0  0  0  0  0  0  0  0  0  0
   11.4064   43.5918   34.3592 O   0  0  0  0  0  0  0  0  0  0  0  0
    9.3679   42.7306   33.6997 O   0  0  0  0  0  0  0  0  0  0  0  0
    9.8863   41.2343   34.2845 P   0  0  0  0  0  5  0  0  0  0  0  0
   10.3665   41.4701   35.8749 O   0  0  0  0  0  1  0  0  0  0  0  0
    9.9514   45.1162   33.2474 C   0  0  2  0  0  0  0  0  0  0  0  0
   11.0759   46.0244   33.4798 N   0  0  0  0  0  0  0  0  0  0  0  0
    8.6559   45.6925   33.8657 C   0  0  0  0  0  0  0  0  0  0  0  0
    7.4152   45.0529   33.2939 C   0  0  0  0  0  0  0  0  0  0  0  0
    6.8586   45.4422   32.0658 O   0  0  0  0  0  0  0  0  0  0  0  0
    6.8675   44.1141   33.9297 O   0  0  0  0  0  0  0  0  0  0  0  0
    7.2775   46.5736   31.3000 C   0  0  0  0  0  0  0  0  0  0  0  0
    6.8434   47.8704   31.9490 C   0  0  0  0  0  0  0  0  0  0  0  0
    7.6649   49.0289   31.9398 C   0  0  0  0  0  0  0  0  0  0  0  0
    5.5849   47.9299   32.5770 C   0  0  0  0  0  0  0  0  0  0  0  0
    8.9157   49.0662   31.2341 N   0  0  0  0  0  4  0  0  0  0  0  0
    7.2417   50.1771   32.6308 C   0  0  0  0  0  0  0  0  0  0  0  0
    5.1733   49.0870   33.2398 C   0  0  0  0  0  0  0  0  0  0  0  0
    9.9675   49.7930   31.7425 O   0  0  0  0  0  1  0  0  0  0  0  0
    8.9914   48.6340   30.0655 O   0  0  0  0  0  0  0  0  0  0  0  0
    6.0052   50.2043   33.2769 C   0  0  0  0  0  0  0  0  0  0  0  0
    8.8087   40.1915   34.2087 O   0  0  0  0  0  0  0  0  0  0  0  0
   11.2377   40.7907   33.3686 O   0  0  0  0  0  0  0  0  0  0  0  0
   10.9156   40.6898   31.9958 C   0  0  0  0  0  0  0  0  0  0  0  0
   11.5270   39.3898   31.4373 C   0  0  0  0  0  0  0  0  0  0  0  0
   12.7508   39.0916   32.0837 O   0  0  0  0  0  0  0  0  0  0  0  0
   10.6122   38.1916   31.6452 C   0  0  0  0  0  0  0  0  0  0  0  0
   12.9429   37.6852   32.0295 C   0  0  0  0  0  0  0  0  0  0  0  0
    9.6069   38.0858   30.6603 O   0  0  0  0  0  0  0  0  0  0  0  0
   11.5844   37.0186   31.6879 C   0  0  0  0  0  0  0  0  0  0  0  0
   13.4899   37.2163   33.3250 N   0  0  0  0  0  0  0  0  0  0  0  0
   11.6201   36.3062   30.4693 O   0  0  0  0  0  0  0  0  0  0  0  0
   14.4759   36.3263   33.5738 C   0  0  0  0  0  0  0  0  0  0  0  0
   13.1175   37.6307   34.5699 C   0  0  0  0  0  0  0  0  0  0  0  0
   15.2065   35.6139   32.6746 N   0  0  0  0  0  0  0  0  0  0  0  0
   14.6731   36.2267   34.9190 C   0  0  0  0  0  0  0  0  0  0  0  0
   13.8224   37.0450   35.5792 N   0  0  0  0  0  0  0  0  0  0  0  0
   16.1640   34.7596   33.1551 C   0  0  0  0  0  0  0  0  0  0  0  0
   15.6517   35.3489   35.4136 C   0  0  0  0  0  0  0  0  0  0  0  0
   16.3795   34.6310   34.5046 N   0  0  0  0  0  0  0  0  0  0  0  0
   15.9006   35.1931   36.8094 N   0  0  0  0  0  0  0  0  0  0  0  0
    9.8254   44.9935   32.1498 H   0  0  0  0  0  0  0  0  0  0  0  0
   11.1091   46.2903   34.4920 H   0  0  0  0  0  0  0  0  0  0  0  0
   10.9138   46.9021   32.9338 H   0  0  0  0  0  0  0  0  0  0  0  0
    8.6113   46.7872   33.6958 H   0  0  0  0  0  0  0  0  0  0  0  0
    8.6714   45.5542   34.9697 H   0  0  0  0  0  0  0  0  0  0  0  0
    8.3746   46.5245   31.1598 H   0  0  0  0  0  0  0  0  0  0  0  0
    6.8081   46.5130   30.2962 H   0  0  0  0  0  0  0  0  0  0  0  0
    4.9246   47.0716   32.5688 H   0  0  0  0  0  0  0  0  0  0  0  0
    7.8610   51.0651   32.6459 H   0  0  0  0  0  0  0  0  0  0  0  0
    4.2089   49.1151   33.7304 H   0  0  0  0  0  0  0  0  0  0  0  0
    5.6855   51.0991   33.7954 H   0  0  0  0  0  0  0  0  0  0  0  0
   11.3823   41.5526   31.4740 H   0  0  0  0  0  0  0  0  0  0  0  0
    9.8254   40.7191   31.7590 H   0  0  0  0  0  0  0  0  0  0  0  0
   11.7318   39.5337   30.3519 H   0  0  0  0  0  0  0  0  0  0  0  0
   10.1215   38.2683   32.6412 H   0  0  0  0  0  0  0  0  0  0  0  0
   13.6882   37.4707   31.2319 H   0  0  0  0  0  0  0  0  0  0  0  0
   10.0256   38.1751   29.7656 H   0  0  0  0  0  0  0  0  0  0  0  0
   11.2795   36.3124   32.4916 H   0  0  0  0  0  0  0  0  0  0  0  0
   11.9871   36.9099   29.7714 H   0  0  0  0  0  0  0  0  0  0  0  0
   12.3365   38.3595   34.7453 H   0  0  0  0  0  0  0  0  0  0  0  0
   16.7576   34.1794   32.4622 H   0  0  0  0  0  0  0  0  0  0  0  0
   15.3532   35.7351   37.5143 H   0  0  0  0  0  0  0  0  0  0  0  0
   16.6368   34.5316   37.1418 H   0  0  0  0  0  0  0  0  0  0  0  0
  1  2  2  0
  1  3  1  0
  3  4  1  0
  4  5  1  0
  6  1  1  0
  7  6  1  0
  6  8  1  0
  8  9  1  0
  9 10  1  0
  9 11  2  0
 10 12  1  0
 12 13  1  0
 13 14  2  0
 15 13  1  0
 14 16  1  0
 14 17  1  0
 18 15  2  0
 16 19  1  0
 16 20  2  0
 17 21  2  0
 21 18  1  0
  4 22  2  0
  4 23  1  0
 24 23  1  0
 24 25  1  0
 25 26  1  0
 25 27  1  0
 26 28  1  0
 27 29  1  0
 27 30  1  0
 30 28  1  0
 28 31  1  0
 30 32  1  0
 33 31  1  0
 34 31  1  0
 35 33  2  0
 33 36  1  0
 37 34  2  0
 38 35  1  0
 36 39  2  0
 36 37  1  0
 40 38  2  0
 40 39  1  0
 39 41  1  0
  6 42  1  6
  7 43  1  0
  7 44  1  0
  8 45  1  0
  8 46  1  0
 12 47  1  0
 12 48  1  0
 15 49  1  0
 17 50  1  0
 18 51  1  0
 21 52  1  0
 24 53  1  0
 24 54  1  0
 25 55  1  0
 27 56  1  0
 28 57  1  0
 29 58  1  0
 30 59  1  0
 32 60  1  0
 34 61  1  0
 38 62  1  0
 41 63  1  0
 41 64  1  0
M  CHG  3   5  -1  16   1  19  -1
M  END
>  <EmbedRMS>  (498) 
0.08689251122661741

$$$$

     RDKit          3D

 64 67  0  0  0  0  0  0  0  0999 V2000
   10.2863   43.7710   33.8099 C   0  0  0  0  0  0  0  0  0  0  0  0
   11.4101   43.5818   34.3615 O   0  0  0  0  0  0  0  0  0  0  0  0
    9.3669   42.7309   33.7020 O   0  0  0  0  0  0  0  0  0  0  0  0
    9.8847   41.2330   34.2845 P   0  0  0  0  0  5  0  0  0  0  0  0
   10.3648   41.4678   35.8752 O   0  0  0  0  0  1  0  0  0  0  0  0
    9.9608   45.1124   33.2473 C   0  0  2  0  0  0  0  0  0  0  0  0
   11.0654   46.0476   33.4749 N   0  0  0  0  0  0  0  0  0  0  0  0
    8.6647   45.6570   33.8713 C   0  0  0  0  0  0  0  0  0  0  0  0
    8.2764   46.9647   33.2545 C   0  0  0  0  0  0  0  0  0  0  0  0
    8.5984   48.1592   33.9093 O   0  0  0  0  0  0  0  0  0  0  0  0
    7.6941   46.9799   32.1354 O   0  0  0  0  0  0  0  0  0  0  0  0
    8.3291   49.4472   33.3558 C   0  0  0  0  0  0  0  0  0  0  0  0
    9.2439   49.7403   32.1858 C   0  0  0  0  0  0  0  0  0  0  0  0
    8.7905   50.4168   31.0222 C   0  0  0  0  0  0  0  0  0  0  0  0
   10.5907   49.3375   32.2604 C   0  0  0  0  0  0  0  0  0  0  0  0
    7.4629   50.9580   30.9277 N   0  0  0  0  0  4  0  0  0  0  0  0
    9.6689   50.5815   29.9372 C   0  0  0  0  0  0  0  0  0  0  0  0
   11.4529   49.5279   31.1800 C   0  0  0  0  0  0  0  0  0  0  0  0
    6.8151   50.9753   29.7139 O   0  0  0  0  0  1  0  0  0  0  0  0
    6.9826   51.6136   31.8753 O   0  0  0  0  0  0  0  0  0  0  0  0
   10.9894   50.1369   30.0156 C   0  0  0  0  0  0  0  0  0  0  0  0
    8.8073   40.1902   34.2075 O   0  0  0  0  0  0  0  0  0  0  0  0
   11.2377   40.7903   33.3696 O   0  0  0  0  0  0  0  0  0  0  0  0
   10.9187   40.6905   31.9961 C   0  0  0  0  0  0  0  0  0  0  0  0
   11.5174   39.3824   31.4411 C   0  0  0  0  0  0  0  0  0  0  0  0
   12.7494   39.0893   32.0756 O   0  0  0  0  0  0  0  0  0  0  0  0
   10.6036   38.1899   31.6659 C   0  0  0  0  0  0  0  0  0  0  0  0
   12.9401   37.6834   32.0276 C   0  0  0  0  0  0  0  0  0  0  0  0
    9.6376   38.0784   30.6474 O   0  0  0  0  0  0  0  0  0  0  0  0
   11.5803   37.0203   31.6937 C   0  0  0  0  0  0  0  0  0  0  0  0
   13.4902   37.2177   33.3237 N   0  0  0  0  0  0  0  0  0  0  0  0
   11.6118   36.3193   30.4680 O   0  0  0  0  0  0  0  0  0  0  0  0
   14.4759   36.3271   33.5731 C   0  0  0  0  0  0  0  0  0  0  0  0
   13.1176   37.6317   34.5688 C   0  0  0  0  0  0  0  0  0  0  0  0
   15.2064   35.6141   32.6742 N   0  0  0  0  0  0  0  0  0  0  0  0
   14.6729   36.2274   34.9184 C   0  0  0  0  0  0  0  0  0  0  0  0
   13.8221   37.0457   35.5783 N   0  0  0  0  0  0  0  0  0  0  0  0
   16.1637   34.7597   33.1549 C   0  0  0  0  0  0  0  0  0  0  0  0
   15.6514   35.3493   35.4133 C   0  0  0  0  0  0  0  0  0  0  0  0
   16.3791   34.6312   34.5044 N   0  0  0  0  0  0  0  0  0  0  0  0
   15.9001   35.1935   36.8091 N   0  0  0  0  0  0  0  0  0  0  0  0
    9.8105   44.9953   32.1510 H   0  0  0  0  0  0  0  0  0  0  0  0
   11.2753   46.1190   34.4981 H   0  0  0  0  0  0  0  0  0  0  0  0
   11.9218   45.7034   32.9817 H   0  0  0  0  0  0  0  0  0  0  0  0
    8.7965   45.7913   34.9674 H   0  0  0  0  0  0  0  0  0  0  0  0
    7.8350   44.9329   33.7159 H   0  0  0  0  0  0  0  0  0  0  0  0
    8.4994   50.2149   34.1390 H   0  0  0  0  0  0  0  0  0  0  0  0
    7.2586   49.4825   33.0656 H   0  0  0  0  0  0  0  0  0  0  0  0
   10.9729   48.8604   33.1540 H   0  0  0  0  0  0  0  0  0  0  0  0
    9.3374   51.0830   29.0368 H   0  0  0  0  0  0  0  0  0  0  0  0
   12.4820   49.1987   31.2451 H   0  0  0  0  0  0  0  0  0  0  0  0
   11.6591   50.2806   29.1775 H   0  0  0  0  0  0  0  0  0  0  0  0
    9.8308   40.7397   31.7558 H   0  0  0  0  0  0  0  0  0  0  0  0
   11.3998   41.5454   31.4747 H   0  0  0  0  0  0  0  0  0  0  0  0
   11.6989   39.5091   30.3489 H   0  0  0  0  0  0  0  0  0  0  0  0
   10.1130   38.2588   32.6663 H   0  0  0  0  0  0  0  0  0  0  0  0
   13.6800   37.4628   31.2265 H   0  0  0  0  0  0  0  0  0  0  0  0
    8.8952   38.6908   30.8891 H   0  0  0  0  0  0  0  0  0  0  0  0
   11.2830   36.3060   32.4929 H   0  0  0  0  0  0  0  0  0  0  0  0
   11.8860   36.9589   29.7593 H   0  0  0  0  0  0  0  0  0  0  0  0
   12.3360   38.3600   34.7441 H   0  0  0  0  0  0  0  0  0  0  0  0
   16.7572   34.1793   32.4621 H   0  0  0  0  0  0  0  0  0  0  0  0
   16.6362   34.5318   37.1416 H   0  0  0  0  0  0  0  0  0  0  0  0
   15.3528   35.7357   37.5140 H   0  0  0  0  0  0  0  0  0  0  0  0
  1  2  2  0
  1  3  1  0
  3  4  1  0
  4  5  1  0
  6  1  1  0
  7  6  1  0
  6  8  1  0
  8  9  1  0
  9 10  1  0
  9 11  2  0
 10 12  1  0
 12 13  1  0
 13 14  2  0
 15 13  1  0
 14 16  1  0
 14 17  1  0
 18 15  2  0
 16 19  1  0
 16 20  2  0
 17 21  2  0
 21 18  1  0
  4 22  2  0
  4 23  1  0
 24 23  1  0
 24 25  1  0
 25 26  1  0
 25 27  1  0
 26 28  1  0
 27 29  1  0
 27 30  1  0
 30 28  1  0
 28 31  1  0
 30 32  1  0
 33 31  1  0
 34 31  1  0
 35 33  2  0
 33 36  1  0
 37 34  2  0
 38 35  1  0
 36 39  2  0
 36 37  1  0
 40 38  2  0
 40 39  1  0
 39 41  1  0
  6 42  1  6
  7 43  1  0
  7 44  1  0
  8 45  1  0
  8 46  1  0
 12 47  1  0
 12 48  1  0
 15 49  1  0
 17 50  1  0
 18 51  1  0
 21 52  1  0
 24 53  1  0
 24 54  1  0
 25 55  1  0
 27 56  1  0
 28 57  1  0
 29 58  1  0
 30 59  1  0
 32 60  1  0
 34 61  1  0
 38 62  1  0
 41 63  1  0
 41 64  1  0
M  CHG  3   5  -1  16   1  19  -1
M  END
>  <EmbedRMS>  (499) 
0.08881536534049737

$$$$

     RDKit          3D

 64 67  0  0  0  0  0  0  0  0999 V2000
   10.2863   43.7710   33.8098 C   0  0  0  0  0  0  0  0  0  0  0  0
   11.4101   43.5818   34.3615 O   0  0  0  0  0  0  0  0  0  0  0  0
    9.3669   42.7308   33.7019 O   0  0  0  0  0  0  0  0  0  0  0  0
    9.8847   41.2330   34.2845 P   0  0  0  0  0  5  0  0  0  0  0  0
   10.3648   41.4678   35.8752 O   0  0  0  0  0  1  0  0  0  0  0  0
    9.9604   45.1127   33.2479 C   0  0  2  0  0  0  0  0  0  0  0  0
   11.0658   46.0478   33.4746 N   0  0  0  0  0  0  0  0  0  0  0  0
    8.6654   45.6568   33.8739 C   0  0  0  0  0  0  0  0  0  0  0  0
    8.2793   46.9669   33.2608 C   0  0  0  0  0  0  0  0  0  0  0  0
    8.7715   48.1532   33.8112 O   0  0  0  0  0  0  0  0  0  0  0  0
    7.5480   46.9880   32.2332 O   0  0  0  0  0  0  0  0  0  0  0  0
    8.4645   49.4364   33.2756 C   0  0  0  0  0  0  0  0  0  0  0  0
    9.1239   50.5065   34.1100 C   0  0  0  0  0  0  0  0  0  0  0  0
    8.9074   50.6157   35.5120 C   0  0  0  0  0  0  0  0  0  0  0  0
   10.0110   51.4003   33.4813 C   0  0  0  0  0  0  0  0  0  0  0  0
    8.0054   49.7438   36.2190 N   0  0  0  0  0  4  0  0  0  0  0  0
    9.6105   51.5940   36.2378 C   0  0  0  0  0  0  0  0  0  0  0  0
   10.6852   52.3734   34.2196 C   0  0  0  0  0  0  0  0  0  0  0  0
    8.2355   49.4455   37.5425 O   0  0  0  0  0  1  0  0  0  0  0  0
    6.9290   49.3813   35.7025 O   0  0  0  0  0  0  0  0  0  0  0  0
   10.4889   52.4672   35.5954 C   0  0  0  0  0  0  0  0  0  0  0  0
    8.8073   40.1902   34.2075 O   0  0  0  0  0  0  0  0  0  0  0  0
   11.2377   40.7903   33.3696 O   0  0  0  0  0  0  0  0  0  0  0  0
   10.9187   40.6904   31.9961 C   0  0  0  0  0  0  0  0  0  0  0  0
   11.5175   39.3823   31.4411 C   0  0  0  0  0  0  0  0  0  0  0  0
   12.7494   39.0893   32.0756 O   0  0  0  0  0  0  0  0  0  0  0  0
   10.6036   38.1899   31.6659 C   0  0  0  0  0  0  0  0  0  0  0  0
   12.9401   37.6834   32.0276 C   0  0  0  0  0  0  0  0  0  0  0  0
    9.6376   38.0784   30.6474 O   0  0  0  0  0  0  0  0  0  0  0  0
   11.5804   37.0203   31.6937 C   0  0  0  0  0  0  0  0  0  0  0  0
   13.4902   37.2177   33.3237 N   0  0  0  0  0  0  0  0  0  0  0  0
   11.6118   36.3193   30.4680 O   0  0  0  0  0  0  0  0  0  0  0  0
   14.4759   36.3271   33.5731 C   0  0  0  0  0  0  0  0  0  0  0  0
   13.1176   37.6317   34.5688 C   0  0  0  0  0  0  0  0  0  0  0  0
   15.2064   35.6141   32.6742 N   0  0  0  0  0  0  0  0  0  0  0  0
   14.6729   36.2274   34.9184 C   0  0  0  0  0  0  0  0  0  0  0  0
   13.8221   37.0457   35.5783 N   0  0  0  0  0  0  0  0  0  0  0  0
   16.1637   34.7597   33.1549 C   0  0  0  0  0  0  0  0  0  0  0  0
   15.6514   35.3493   35.4133 C   0  0  0  0  0  0  0  0  0  0  0  0
   16.3791   34.6312   34.5044 N   0  0  0  0  0  0  0  0  0  0  0  0
   15.9001   35.1935   36.8091 N   0  0  0  0  0  0  0  0  0  0  0  0
    9.8079   44.9963   32.1518 H   0  0  0  0  0  0  0  0  0  0  0  0
   11.9221   45.7013   32.9827 H   0  0  0  0  0  0  0  0  0  0  0  0
   11.2754   46.1194   34.4979 H   0  0  0  0  0  0  0  0  0  0  0  0
    8.7989   45.7919   34.9698 H   0  0  0  0  0  0  0  0  0  0  0  0
    7.8357   44.9320   33.7209 H   0  0  0  0  0  0  0  0  0  0  0  0
    7.3658   49.5967   33.2608 H   0  0  0  0  0  0  0  0  0  0  0  0
    8.8178   49.4780   32.2217 H   0  0  0  0  0  0  0  0  0  0  0  0
   10.1917   51.3401   32.4151 H   0  0  0  0  0  0  0  0  0  0  0  0
    9.4656   51.6929   37.3061 H   0  0  0  0  0  0  0  0  0  0  0  0
   11.3668   53.0526   33.7238 H   0  0  0  0  0  0  0  0  0  0  0  0
   11.0165   53.2205   36.1662 H   0  0  0  0  0  0  0  0  0  0  0  0
   11.3998   41.5454   31.4747 H   0  0  0  0  0  0  0  0  0  0  0  0
    9.8308   40.7397   31.7557 H   0  0  0  0  0  0  0  0  0  0  0  0
   11.6989   39.5091   30.3489 H   0  0  0  0  0  0  0  0  0  0  0  0
   10.1130   38.2588   32.6663 H   0  0  0  0  0  0  0  0  0  0  0  0
   13.6800   37.4627   31.2265 H   0  0  0  0  0  0  0  0  0  0  0  0
    8.8952   38.6907   30.8891 H   0  0  0  0  0  0  0  0  0  0  0  0
   11.2830   36.3060   32.4929 H   0  0  0  0  0  0  0  0  0  0  0  0
   11.8859   36.9589   29.7593 H   0  0  0  0  0  0  0  0  0  0  0  0
   12.3360   38.3600   34.7441 H   0  0  0  0  0  0  0  0  0  0  0  0
   16.7572   34.1793   32.4621 H   0  0  0  0  0  0  0  0  0  0  0  0
   16.6362   34.5318   37.1416 H   0  0  0  0  0  0  0  0  0  0  0  0
   15.3528   35.7357   37.5140 H   0  0  0  0  0  0  0  0  0  0  0  0
  1  2  2  0
  1  3  1  0
  3  4  1  0
  4  5  1  0
  6  1  1  0
  7  6  1  0
  6  8  1  0
  8  9  1  0
  9 10  1  0
  9 11  2  0
 10 12  1  0
 12 13  1  0
 13 14  2  0
 15 13  1  0
 14 16  1  0
 14 17  1  0
 18 15  2  0
 16 19  1  0
 16 20  2  0
 17 21  2  0
 21 18  1  0
  4 22  2  0
  4 23  1  0
 24 23  1  0
 24 25  1  0
 25 26  1  0
 25 27  1  0
 26 28  1  0
 27 29  1  0
 27 30  1  0
 30 28  1  0
 28 31  1  0
 30 32  1  0
 33 31  1  0
 34 31  1  0
 35 33  2  0
 33 36  1  0
 37 34  2  0
 38 35  1  0
 36 39  2  0
 36 37  1  0
 40 38  2  0
 40 39  1  0
 39 41  1  0
  6 42  1  6
  7 43  1  0
  7 44  1  0
  8 45  1  0
  8 46  1  0
 12 47  1  0
 12 48  1  0
 15 49  1  0
 17 50  1  0
 18 51  1  0
 21 52  1  0
 24 53  1  0
 24 54  1  0
 25 55  1  0
 27 56  1  0
 28 57  1  0
 29 58  1  0
 30 59  1  0
 32 60  1  0
 34 61  1  0
 38 62  1  0
 41 63  1  0
 41 64  1  0
M  CHG  3   5  -1  16   1  19  -1
M  END
>  <EmbedRMS>  (500) 
0.08883678148229815

$$$$

     RDKit          3D

 64 67  0  0  0  0  0  0  0  0999 V2000
   10.2877   43.7687   33.8087 C   0  0  0  0  0  0  0  0  0  0  0  0
   11.4117   43.5793   34.3596 O   0  0  0  0  0  0  0  0  0  0  0  0
    9.3668   42.7302   33.7018 O   0  0  0  0  0  0  0  0  0  0  0  0
    9.8845   41.2324   34.2841 P   0  0  0  0  0  5  0  0  0  0  0  0
   10.3646   41.4678   35.8748 O   0  0  0  0  0  1  0  0  0  0  0  0
    9.9639   45.1114   33.2467 C   0  0  2  0  0  0  0  0  0  0  0  0
   11.0620   46.0542   33.4765 N   0  0  0  0  0  0  0  0  0  0  0  0
    8.6419   45.6678   33.8097 C   0  0  0  0  0  0  0  0  0  0  0  0
    8.6643   45.8205   35.3019 C   0  0  0  0  0  0  0  0  0  0  0  0
    9.1599   46.9996   35.8643 O   0  0  0  0  0  0  0  0  0  0  0  0
    8.2698   44.8735   36.0360 O   0  0  0  0  0  0  0  0  0  0  0  0
    9.2638   47.1978   37.2719 C   0  0  0  0  0  0  0  0  0  0  0  0
    9.9002   48.5334   37.5842 C   0  0  0  0  0  0  0  0  0  0  0  0
    9.6191   49.2267   38.7927 C   0  0  0  0  0  0  0  0  0  0  0  0
   10.8207   49.0927   36.6751 C   0  0  0  0  0  0  0  0  0  0  0  0
    8.7728   48.6660   39.8118 N   0  0  0  0  0  4  0  0  0  0  0  0
   10.1927   50.4921   39.0085 C   0  0  0  0  0  0  0  0  0  0  0  0
   11.3946   50.3411   36.9187 C   0  0  0  0  0  0  0  0  0  0  0  0
    8.0214   49.4951   40.6127 O   0  0  0  0  0  1  0  0  0  0  0  0
    8.8602   47.4578   40.1129 O   0  0  0  0  0  0  0  0  0  0  0  0
   11.0718   51.0448   38.0768 C   0  0  0  0  0  0  0  0  0  0  0  0
    8.8069   40.1899   34.2075 O   0  0  0  0  0  0  0  0  0  0  0  0
   11.2377   40.7894   33.3690 O   0  0  0  0  0  0  0  0  0  0  0  0
   10.9193   40.6893   31.9951 C   0  0  0  0  0  0  0  0  0  0  0  0
   11.5170   39.3801   31.4397 C   0  0  0  0  0  0  0  0  0  0  0  0
   12.7478   39.0861   32.0733 O   0  0  0  0  0  0  0  0  0  0  0  0
   10.6031   38.1891   31.6666 C   0  0  0  0  0  0  0  0  0  0  0  0
   12.9335   37.6796   32.0279 C   0  0  0  0  0  0  0  0  0  0  0  0
    9.6397   38.0776   30.6456 O   0  0  0  0  0  0  0  0  0  0  0  0
   11.5739   37.0154   31.7057 C   0  0  0  0  0  0  0  0  0  0  0  0
   13.4903   37.2178   33.3231 N   0  0  0  0  0  0  0  0  0  0  0  0
   11.6211   36.3376   30.4694 O   0  0  0  0  0  0  0  0  0  0  0  0
   14.4761   36.3273   33.5725 C   0  0  0  0  0  0  0  0  0  0  0  0
   13.1179   37.6317   34.5684 C   0  0  0  0  0  0  0  0  0  0  0  0
   15.2063   35.6139   32.6737 N   0  0  0  0  0  0  0  0  0  0  0  0
   14.6733   36.2277   34.9179 C   0  0  0  0  0  0  0  0  0  0  0  0
   13.8225   37.0459   35.5779 N   0  0  0  0  0  0  0  0  0  0  0  0
   16.1636   34.7594   33.1546 C   0  0  0  0  0  0  0  0  0  0  0  0
   15.6515   35.3494   35.4129 C   0  0  0  0  0  0  0  0  0  0  0  0
   16.3791   34.6311   34.5041 N   0  0  0  0  0  0  0  0  0  0  0  0
   15.9001   35.1935   36.8088 N   0  0  0  0  0  0  0  0  0  0  0  0
    9.8339   44.9913   32.1486 H   0  0  0  0  0  0  0  0  0  0  0  0
   11.3062   46.0944   34.4933 H   0  0  0  0  0  0  0  0  0  0  0  0
   11.9085   45.7292   32.9539 H   0  0  0  0  0  0  0  0  0  0  0  0
    8.4398   46.6594   33.3503 H   0  0  0  0  0  0  0  0  0  0  0  0
    7.8022   44.9984   33.5204 H   0  0  0  0  0  0  0  0  0  0  0  0
    9.8864   46.3920   37.7171 H   0  0  0  0  0  0  0  0  0  0  0  0
    8.2395   47.1506   37.6995 H   0  0  0  0  0  0  0  0  0  0  0  0
   11.0915   48.5692   35.7668 H   0  0  0  0  0  0  0  0  0  0  0  0
    9.9805   51.0415   39.9169 H   0  0  0  0  0  0  0  0  0  0  0  0
   12.0900   50.7649   36.2056 H   0  0  0  0  0  0  0  0  0  0  0  0
   11.5162   52.0144   38.2615 H   0  0  0  0  0  0  0  0  0  0  0  0
   11.4013   41.5437   31.4737 H   0  0  0  0  0  0  0  0  0  0  0  0
    9.8315   40.7398   31.7546 H   0  0  0  0  0  0  0  0  0  0  0  0
   11.6981   39.5044   30.3471 H   0  0  0  0  0  0  0  0  0  0  0  0
   10.1089   38.2630   32.6649 H   0  0  0  0  0  0  0  0  0  0  0  0
   13.6656   37.4541   31.2207 H   0  0  0  0  0  0  0  0  0  0  0  0
    8.8965   38.6899   30.8851 H   0  0  0  0  0  0  0  0  0  0  0  0
   11.2846   36.3060   32.5175 H   0  0  0  0  0  0  0  0  0  0  0  0
   10.8524   35.7094   30.4590 H   0  0  0  0  0  0  0  0  0  0  0  0
   12.3353   38.3588   34.7439 H   0  0  0  0  0  0  0  0  0  0  0  0
   16.7570   34.1788   32.4619 H   0  0  0  0  0  0  0  0  0  0  0  0
   16.6360   34.5317   37.1413 H   0  0  0  0  0  0  0  0  0  0  0  0
   15.3529   35.7359   37.5136 H   0  0  0  0  0  0  0  0  0  0  0  0
  1  2  2  0
  1  3  1  0
  3  4  1  0
  4  5  1  0
  6  1  1  0
  7  6  1  0
  6  8  1  0
  8  9  1  0
  9 10  1  0
  9 11  2  0
 10 12  1  0
 12 13  1  0
 13 14  2  0
 15 13  1  0
 14 16  1  0
 14 17  1  0
 18 15  2  0
 16 19  1  0
 16 20  2  0
 17 21  2  0
 21 18  1  0
  4 22  2  0
  4 23  1  0
 24 23  1  0
 24 25  1  0
 25 26  1  0
 25 27  1  0
 26 28  1  0
 27 29  1  0
 27 30  1  0
 30 28  1  0
 28 31  1  0
 30 32  1  0
 33 31  1  0
 34 31  1  0
 35 33  2  0
 33 36  1  0
 37 34  2  0
 38 35  1  0
 36 39  2  0
 36 37  1  0
 40 38  2  0
 40 39  1  0
 39 41  1  0
  6 42  1  6
  7 43  1  0
  7 44  1  0
  8 45  1  0
  8 46  1  0
 12 47  1  0
 12 48  1  0
 15 49  1  0
 17 50  1  0
 18 51  1  0
 21 52  1  0
 24 53  1  0
 24 54  1  0
 25 55  1  0
 27 56  1  0
 28 57  1  0
 29 58  1  0
 30 59  1  0
 32 60  1  0
 34 61  1  0
 38 62  1  0
 41 63  1  0
 41 64  1  0
M  CHG  3   5  -1  16   1  19  -1
M  END
>  <EmbedRMS>  (501) 
0.09008970168342796

$$$$

     RDKit          3D

 64 67  0  0  0  0  0  0  0  0999 V2000
   10.2823   43.7726   33.8132 C   0  0  0  0  0  0  0  0  0  0  0  0
   11.4066   43.5833   34.3641 O   0  0  0  0  0  0  0  0  0  0  0  0
    9.3689   42.7287   33.6983 O   0  0  0  0  0  0  0  0  0  0  0  0
    9.8856   41.2322   34.2836 P   0  0  0  0  0  5  0  0  0  0  0  0
   10.3655   41.4684   35.8743 O   0  0  0  0  0  1  0  0  0  0  0  0
    9.9551   45.1194   33.2552 C   0  0  2  0  0  0  0  0  0  0  0  0
   11.0726   46.0421   33.4665 N   0  0  0  0  0  0  0  0  0  0  0  0
    8.6847   45.7121   33.8981 C   0  0  0  0  0  0  0  0  0  0  0  0
    7.4257   45.0249   33.4326 C   0  0  0  0  0  0  0  0  0  0  0  0
    6.7999   45.3274   32.2140 O   0  0  0  0  0  0  0  0  0  0  0  0
    6.9246   44.1234   34.1549 O   0  0  0  0  0  0  0  0  0  0  0  0
    7.1371   46.4261   31.3649 C   0  0  0  0  0  0  0  0  0  0  0  0
    6.6991   47.7453   31.9649 C   0  0  0  0  0  0  0  0  0  0  0  0
    7.4303   48.9445   31.7616 C   0  0  0  0  0  0  0  0  0  0  0  0
    5.4575   47.8088   32.6266 C   0  0  0  0  0  0  0  0  0  0  0  0
    8.6859   48.9535   31.0682 N   0  0  0  0  0  4  0  0  0  0  0  0
    6.9125   50.1597   32.2407 C   0  0  0  0  0  0  0  0  0  0  0  0
    4.9670   49.0227   33.1101 C   0  0  0  0  0  0  0  0  0  0  0  0
    9.7433   48.2229   31.5573 O   0  0  0  0  0  1  0  0  0  0  0  0
    8.9044   49.8190   30.1957 O   0  0  0  0  0  0  0  0  0  0  0  0
    5.6932   50.1962   32.9177 C   0  0  0  0  0  0  0  0  0  0  0  0
    8.8075   40.1901   34.2078 O   0  0  0  0  0  0  0  0  0  0  0  0
   11.2373   40.7886   33.3679 O   0  0  0  0  0  0  0  0  0  0  0  0
   10.9158   40.6879   31.9948 C   0  0  0  0  0  0  0  0  0  0  0  0
   11.5262   39.3869   31.4362 C   0  0  0  0  0  0  0  0  0  0  0  0
   12.7493   39.0891   32.0816 O   0  0  0  0  0  0  0  0  0  0  0  0
   10.6123   38.1893   31.6460 C   0  0  0  0  0  0  0  0  0  0  0  0
   12.9374   37.6825   32.0300 C   0  0  0  0  0  0  0  0  0  0  0  0
    9.6150   38.0838   30.6538 O   0  0  0  0  0  0  0  0  0  0  0  0
   11.5793   37.0136   31.7013 C   0  0  0  0  0  0  0  0  0  0  0  0
   13.4906   37.2169   33.3242 N   0  0  0  0  0  0  0  0  0  0  0  0
   11.6216   36.3252   30.4725 O   0  0  0  0  0  0  0  0  0  0  0  0
   14.4763   36.3266   33.5731 C   0  0  0  0  0  0  0  0  0  0  0  0
   13.1181   37.6308   34.5694 C   0  0  0  0  0  0  0  0  0  0  0  0
   15.2065   35.6137   32.6740 N   0  0  0  0  0  0  0  0  0  0  0  0
   14.6735   36.2270   34.9185 C   0  0  0  0  0  0  0  0  0  0  0  0
   13.8229   37.0451   35.5787 N   0  0  0  0  0  0  0  0  0  0  0  0
   16.1639   34.7593   33.1547 C   0  0  0  0  0  0  0  0  0  0  0  0
   15.6519   35.3489   35.4132 C   0  0  0  0  0  0  0  0  0  0  0  0
   16.3794   34.6308   34.5042 N   0  0  0  0  0  0  0  0  0  0  0  0
   15.9006   35.1931   36.8090 N   0  0  0  0  0  0  0  0  0  0  0  0
    9.7987   45.0084   32.1607 H   0  0  0  0  0  0  0  0  0  0  0  0
   11.2945   46.1150   34.4872 H   0  0  0  0  0  0  0  0  0  0  0  0
   11.9197   45.6864   32.9653 H   0  0  0  0  0  0  0  0  0  0  0  0
    8.7586   45.6404   35.0061 H   0  0  0  0  0  0  0  0  0  0  0  0
    8.6175   46.7937   33.6633 H   0  0  0  0  0  0  0  0  0  0  0  0
    6.5998   46.2968   30.4024 H   0  0  0  0  0  0  0  0  0  0  0  0
    8.2160   46.3938   31.1309 H   0  0  0  0  0  0  0  0  0  0  0  0
    4.8587   46.9165   32.7608 H   0  0  0  0  0  0  0  0  0  0  0  0
    7.4631   51.0808   32.0961 H   0  0  0  0  0  0  0  0  0  0  0  0
    4.0147   49.0550   33.6237 H   0  0  0  0  0  0  0  0  0  0  0  0
    5.3076   51.1375   33.2877 H   0  0  0  0  0  0  0  0  0  0  0  0
    9.8257   40.7182   31.7576 H   0  0  0  0  0  0  0  0  0  0  0  0
   11.3835   41.5502   31.4732 H   0  0  0  0  0  0  0  0  0  0  0  0
   11.7291   39.5286   30.3501 H   0  0  0  0  0  0  0  0  0  0  0  0
   10.1141   38.2719   32.6379 H   0  0  0  0  0  0  0  0  0  0  0  0
   13.6726   37.4633   31.2239 H   0  0  0  0  0  0  0  0  0  0  0  0
   10.0535   38.1084   29.7638 H   0  0  0  0  0  0  0  0  0  0  0  0
   11.2645   36.3134   32.5107 H   0  0  0  0  0  0  0  0  0  0  0  0
   12.1548   35.5031   30.6315 H   0  0  0  0  0  0  0  0  0  0  0  0
   12.3362   38.3586   34.7450 H   0  0  0  0  0  0  0  0  0  0  0  0
   16.7574   34.1788   32.4619 H   0  0  0  0  0  0  0  0  0  0  0  0
   16.6366   34.5314   37.1415 H   0  0  0  0  0  0  0  0  0  0  0  0
   15.3533   35.7353   37.5139 H   0  0  0  0  0  0  0  0  0  0  0  0
  1  2  2  0
  1  3  1  0
  3  4  1  0
  4  5  1  0
  6  1  1  0
  7  6  1  0
  6  8  1  0
  8  9  1  0
  9 10  1  0
  9 11  2  0
 10 12  1  0
 12 13  1  0
 13 14  2  0
 15 13  1  0
 14 16  1  0
 14 17  1  0
 18 15  2  0
 16 19  1  0
 16 20  2  0
 17 21  2  0
 21 18  1  0
  4 22  2  0
  4 23  1  0
 24 23  1  0
 24 25  1  0
 25 26  1  0
 25 27  1  0
 26 28  1  0
 27 29  1  0
 27 30  1  0
 30 28  1  0
 28 31  1  0
 30 32  1  0
 33 31  1  0
 34 31  1  0
 35 33  2  0
 33 36  1  0
 37 34  2  0
 38 35  1  0
 36 39  2  0
 36 37  1  0
 40 38  2  0
 40 39  1  0
 39 41  1  0
  6 42  1  6
  7 43  1  0
  7 44  1  0
  8 45  1  0
  8 46  1  0
 12 47  1  0
 12 48  1  0
 15 49  1  0
 17 50  1  0
 18 51  1  0
 21 52  1  0
 24 53  1  0
 24 54  1  0
 25 55  1  0
 27 56  1  0
 28 57  1  0
 29 58  1  0
 30 59  1  0
 32 60  1  0
 34 61  1  0
 38 62  1  0
 41 63  1  0
 41 64  1  0
M  CHG  3   5  -1  16   1  19  -1
M  END
>  <EmbedRMS>  (502) 
0.0886740822022295

$$$$

     RDKit          3D

 64 67  0  0  0  0  0  0  0  0999 V2000
   10.2852   43.7723   33.8062 C   0  0  0  0  0  0  0  0  0  0  0  0
   11.4107   43.5873   34.3560 O   0  0  0  0  0  0  0  0  0  0  0  0
    9.3668   42.7311   33.7009 O   0  0  0  0  0  0  0  0  0  0  0  0
    9.8856   41.2340   34.2841 P   0  0  0  0  0  5  0  0  0  0  0  0
   10.3656   41.4697   35.8748 O   0  0  0  0  0  1  0  0  0  0  0  0
    9.9579   45.1108   33.2443 C   0  0  2  0  0  0  0  0  0  0  0  0
   11.0675   46.0365   33.4850 N   0  0  0  0  0  0  0  0  0  0  0  0
    8.6203   45.6578   33.7927 C   0  0  0  0  0  0  0  0  0  0  0  0
    8.6117   45.7984   35.2862 C   0  0  0  0  0  0  0  0  0  0  0  0
    8.9618   47.0237   35.8641 O   0  0  0  0  0  0  0  0  0  0  0  0
    8.3143   44.8068   36.0061 O   0  0  0  0  0  0  0  0  0  0  0  0
    9.0192   47.2419   37.2730 C   0  0  0  0  0  0  0  0  0  0  0  0
    7.6351   47.2058   37.8810 C   0  0  0  0  0  0  0  0  0  0  0  0
    7.3086   46.4065   39.0091 C   0  0  0  0  0  0  0  0  0  0  0  0
    6.6627   48.0755   37.3549 C   0  0  0  0  0  0  0  0  0  0  0  0
    8.2485   45.4924   39.5930 N   0  0  0  0  0  4  0  0  0  0  0  0
    6.0295   46.5139   39.5807 C   0  0  0  0  0  0  0  0  0  0  0  0
    5.3912   48.1535   37.9249 C   0  0  0  0  0  0  0  0  0  0  0  0
    8.3261   45.3810   40.9621 O   0  0  0  0  0  1  0  0  0  0  0  0
    8.7934   44.6193   38.8874 O   0  0  0  0  0  0  0  0  0  0  0  0
    5.0764   47.3768   39.0382 C   0  0  0  0  0  0  0  0  0  0  0  0
    8.8082   40.1910   34.2081 O   0  0  0  0  0  0  0  0  0  0  0  0
   11.2384   40.7903   33.3688 O   0  0  0  0  0  0  0  0  0  0  0  0
   10.9193   40.6895   31.9950 C   0  0  0  0  0  0  0  0  0  0  0  0
   11.5170   39.3801   31.4398 C   0  0  0  0  0  0  0  0  0  0  0  0
   12.7478   39.0862   32.0734 O   0  0  0  0  0  0  0  0  0  0  0  0
   10.6031   38.1891   31.6667 C   0  0  0  0  0  0  0  0  0  0  0  0
   12.9335   37.6797   32.0280 C   0  0  0  0  0  0  0  0  0  0  0  0
    9.6397   38.0777   30.6456 O   0  0  0  0  0  0  0  0  0  0  0  0
   11.5739   37.0154   31.7057 C   0  0  0  0  0  0  0  0  0  0  0  0
   13.4903   37.2178   33.3231 N   0  0  0  0  0  0  0  0  0  0  0  0
   11.6211   36.3376   30.4695 O   0  0  0  0  0  0  0  0  0  0  0  0
   14.4761   36.3273   33.5725 C   0  0  0  0  0  0  0  0  0  0  0  0
   13.1179   37.6316   34.5684 C   0  0  0  0  0  0  0  0  0  0  0  0
   15.2063   35.6139   32.6737 N   0  0  0  0  0  0  0  0  0  0  0  0
   14.6733   36.2277   34.9180 C   0  0  0  0  0  0  0  0  0  0  0  0
   13.8225   37.0459   35.5779 N   0  0  0  0  0  0  0  0  0  0  0  0
   16.1636   34.7594   33.1546 C   0  0  0  0  0  0  0  0  0  0  0  0
   15.6515   35.3494   35.4129 C   0  0  0  0  0  0  0  0  0  0  0  0
   16.3791   34.6311   34.5041 N   0  0  0  0  0  0  0  0  0  0  0  0
   15.9001   35.1935   36.8088 N   0  0  0  0  0  0  0  0  0  0  0  0
    9.8470   44.9847   32.1450 H   0  0  0  0  0  0  0  0  0  0  0  0
   10.8540   46.9452   33.0129 H   0  0  0  0  0  0  0  0  0  0  0  0
   11.1593   46.2311   34.5086 H   0  0  0  0  0  0  0  0  0  0  0  0
    8.4136   46.6492   33.3351 H   0  0  0  0  0  0  0  0  0  0  0  0
    7.7909   44.9834   33.4862 H   0  0  0  0  0  0  0  0  0  0  0  0
    9.4482   48.2503   37.4513 H   0  0  0  0  0  0  0  0  0  0  0  0
    9.7231   46.5204   37.7301 H   0  0  0  0  0  0  0  0  0  0  0  0
    6.8953   48.7057   36.5049 H   0  0  0  0  0  0  0  0  0  0  0  0
    5.7652   45.9127   40.4416 H   0  0  0  0  0  0  0  0  0  0  0  0
    4.6523   48.8260   37.5087 H   0  0  0  0  0  0  0  0  0  0  0  0
    4.0917   47.4434   39.4827 H   0  0  0  0  0  0  0  0  0  0  0  0
   11.4009   41.5437   31.4730 H   0  0  0  0  0  0  0  0  0  0  0  0
    9.8314   40.7396   31.7551 H   0  0  0  0  0  0  0  0  0  0  0  0
   11.6982   39.5044   30.3472 H   0  0  0  0  0  0  0  0  0  0  0  0
   10.1089   38.2631   32.6650 H   0  0  0  0  0  0  0  0  0  0  0  0
   13.6656   37.4541   31.2207 H   0  0  0  0  0  0  0  0  0  0  0  0
    8.8965   38.6900   30.8852 H   0  0  0  0  0  0  0  0  0  0  0  0
   11.2846   36.3060   32.5175 H   0  0  0  0  0  0  0  0  0  0  0  0
   10.8523   35.7095   30.4590 H   0  0  0  0  0  0  0  0  0  0  0  0
   12.3353   38.3588   34.7440 H   0  0  0  0  0  0  0  0  0  0  0  0
   16.7570   34.1788   32.4619 H   0  0  0  0  0  0  0  0  0  0  0  0
   16.6360   34.5317   37.1413 H   0  0  0  0  0  0  0  0  0  0  0  0
   15.3529   35.7359   37.5136 H   0  0  0  0  0  0  0  0  0  0  0  0
  1  2  2  0
  1  3  1  0
  3  4  1  0
  4  5  1  0
  6  1  1  0
  7  6  1  0
  6  8  1  0
  8  9  1  0
  9 10  1  0
  9 11  2  0
 10 12  1  0
 12 13  1  0
 13 14  2  0
 15 13  1  0
 14 16  1  0
 14 17  1  0
 18 15  2  0
 16 19  1  0
 16 20  2  0
 17 21  2  0
 21 18  1  0
  4 22  2  0
  4 23  1  0
 24 23  1  0
 24 25  1  0
 25 26  1  0
 25 27  1  0
 26 28  1  0
 27 29  1  0
 27 30  1  0
 30 28  1  0
 28 31  1  0
 30 32  1  0
 33 31  1  0
 34 31  1  0
 35 33  2  0
 33 36  1  0
 37 34  2  0
 38 35  1  0
 36 39  2  0
 36 37  1  0
 40 38  2  0
 40 39  1  0
 39 41  1  0
  6 42  1  6
  7 43  1  0
  7 44  1  0
  8 45  1  0
  8 46  1  0
 12 47  1  0
 12 48  1  0
 15 49  1  0
 17 50  1  0
 18 51  1  0
 21 52  1  0
 24 53  1  0
 24 54  1  0
 25 55  1  0
 27 56  1  0
 28 57  1  0
 29 58  1  0
 30 59  1  0
 32 60  1  0
 34 61  1  0
 38 62  1  0
 41 63  1  0
 41 64  1  0
M  CHG  3   5  -1  16   1  19  -1
M  END
>  <EmbedRMS>  (503) 
0.08932343893322088

$$$$

     RDKit          3D

 64 67  0  0  0  0  0  0  0  0999 V2000
   10.2861   43.7718   33.8044 C   0  0  0  0  0  0  0  0  0  0  0  0
   11.4087   43.5883   34.3608 O   0  0  0  0  0  0  0  0  0  0  0  0
    9.3674   42.7309   33.6994 O   0  0  0  0  0  0  0  0  0  0  0  0
    9.8854   41.2342   34.2844 P   0  0  0  0  0  5  0  0  0  0  0  0
   10.3652   41.4703   35.8750 O   0  0  0  0  0  1  0  0  0  0  0  0
    9.9531   45.1147   33.2532 C   0  0  2  0  0  0  0  0  0  0  0  0
   11.0711   46.0330   33.4771 N   0  0  0  0  0  0  0  0  0  0  0  0
    8.6592   45.6656   33.8869 C   0  0  0  0  0  0  0  0  0  0  0  0
    8.7671   45.8108   35.3766 C   0  0  0  0  0  0  0  0  0  0  0  0
    9.5147   46.8620   35.9136 O   0  0  0  0  0  0  0  0  0  0  0  0
    8.2094   44.9673   36.1307 O   0  0  0  0  0  0  0  0  0  0  0  0
    9.6776   47.0527   37.3154 C   0  0  0  0  0  0  0  0  0  0  0  0
   10.6253   48.1995   37.5645 C   0  0  0  0  0  0  0  0  0  0  0  0
   11.9506   48.2146   37.0463 C   0  0  0  0  0  0  0  0  0  0  0  0
   10.1633   49.3075   38.2993 C   0  0  0  0  0  0  0  0  0  0  0  0
   12.4939   47.1133   36.2938 N   0  0  0  0  0  4  0  0  0  0  0  0
   12.7537   49.3497   37.2583 C   0  0  0  0  0  0  0  0  0  0  0  0
   10.9841   50.4158   38.5102 C   0  0  0  0  0  0  0  0  0  0  0  0
   13.4624   47.3431   35.3436 O   0  0  0  0  0  1  0  0  0  0  0  0
   12.2240   45.9338   36.5987 O   0  0  0  0  0  0  0  0  0  0  0  0
   12.2748   50.4387   37.9873 C   0  0  0  0  0  0  0  0  0  0  0  0
    8.8081   40.1912   34.2082 O   0  0  0  0  0  0  0  0  0  0  0  0
   11.2382   40.7905   33.3698 O   0  0  0  0  0  0  0  0  0  0  0  0
   10.9190   40.6905   31.9962 C   0  0  0  0  0  0  0  0  0  0  0  0
   11.5176   39.3824   31.4412 C   0  0  0  0  0  0  0  0  0  0  0  0
   12.7495   39.0892   32.0756 O   0  0  0  0  0  0  0  0  0  0  0  0
   10.6036   38.1900   31.6659 C   0  0  0  0  0  0  0  0  0  0  0  0
   12.9401   37.6833   32.0276 C   0  0  0  0  0  0  0  0  0  0  0  0
    9.6377   38.0785   30.6474 O   0  0  0  0  0  0  0  0  0  0  0  0
   11.5803   37.0204   31.6937 C   0  0  0  0  0  0  0  0  0  0  0  0
   13.4902   37.2177   33.3237 N   0  0  0  0  0  0  0  0  0  0  0  0
   11.6117   36.3193   30.4680 O   0  0  0  0  0  0  0  0  0  0  0  0
   14.4759   36.3271   33.5731 C   0  0  0  0  0  0  0  0  0  0  0  0
   13.1176   37.6317   34.5688 C   0  0  0  0  0  0  0  0  0  0  0  0
   15.2064   35.6141   32.6742 N   0  0  0  0  0  0  0  0  0  0  0  0
   14.6729   36.2274   34.9184 C   0  0  0  0  0  0  0  0  0  0  0  0
   13.8221   37.0457   35.5783 N   0  0  0  0  0  0  0  0  0  0  0  0
   16.1637   34.7597   33.1549 C   0  0  0  0  0  0  0  0  0  0  0  0
   15.6514   35.3493   35.4133 C   0  0  0  0  0  0  0  0  0  0  0  0
   16.3791   34.6312   34.5044 N   0  0  0  0  0  0  0  0  0  0  0  0
   15.9001   35.1935   36.8091 N   0  0  0  0  0  0  0  0  0  0  0  0
    9.7851   45.0060   32.1581 H   0  0  0  0  0  0  0  0  0  0  0  0
   10.8116   46.9718   33.0955 H   0  0  0  0  0  0  0  0  0  0  0  0
   11.8841   45.7118   32.9015 H   0  0  0  0  0  0  0  0  0  0  0  0
    8.4254   46.6591   33.4474 H   0  0  0  0  0  0  0  0  0  0  0  0
    7.8077   44.9948   33.6373 H   0  0  0  0  0  0  0  0  0  0  0  0
   10.0732   46.1304   37.7906 H   0  0  0  0  0  0  0  0  0  0  0  0
    8.6807   47.2505   37.7669 H   0  0  0  0  0  0  0  0  0  0  0  0
    9.1591   49.3209   38.7048 H   0  0  0  0  0  0  0  0  0  0  0  0
   13.7639   49.3861   36.8705 H   0  0  0  0  0  0  0  0  0  0  0  0
   10.6153   51.2621   39.0753 H   0  0  0  0  0  0  0  0  0  0  0  0
   12.9079   51.3016   38.1490 H   0  0  0  0  0  0  0  0  0  0  0  0
   11.4000   41.5455   31.4747 H   0  0  0  0  0  0  0  0  0  0  0  0
    9.8311   40.7398   31.7560 H   0  0  0  0  0  0  0  0  0  0  0  0
   11.6990   39.5092   30.3489 H   0  0  0  0  0  0  0  0  0  0  0  0
   10.1130   38.2589   32.6664 H   0  0  0  0  0  0  0  0  0  0  0  0
   13.6800   37.4627   31.2265 H   0  0  0  0  0  0  0  0  0  0  0  0
    8.8953   38.6909   30.8891 H   0  0  0  0  0  0  0  0  0  0  0  0
   11.2830   36.3060   32.4929 H   0  0  0  0  0  0  0  0  0  0  0  0
   11.8859   36.9589   29.7593 H   0  0  0  0  0  0  0  0  0  0  0  0
   12.3360   38.3600   34.7441 H   0  0  0  0  0  0  0  0  0  0  0  0
   16.7572   34.1793   32.4621 H   0  0  0  0  0  0  0  0  0  0  0  0
   15.3528   35.7357   37.5140 H   0  0  0  0  0  0  0  0  0  0  0  0
   16.6362   34.5318   37.1416 H   0  0  0  0  0  0  0  0  0  0  0  0
  1  2  2  0
  1  3  1  0
  3  4  1  0
  4  5  1  0
  6  1  1  0
  7  6  1  0
  6  8  1  0
  8  9  1  0
  9 10  1  0
  9 11  2  0
 10 12  1  0
 12 13  1  0
 13 14  2  0
 15 13  1  0
 14 16  1  0
 14 17  1  0
 18 15  2  0
 16 19  1  0
 16 20  2  0
 17 21  2  0
 21 18  1  0
  4 22  2  0
  4 23  1  0
 24 23  1  0
 24 25  1  0
 25 26  1  0
 25 27  1  0
 26 28  1  0
 27 29  1  0
 27 30  1  0
 30 28  1  0
 28 31  1  0
 30 32  1  0
 33 31  1  0
 34 31  1  0
 35 33  2  0
 33 36  1  0
 37 34  2  0
 38 35  1  0
 36 39  2  0
 36 37  1  0
 40 38  2  0
 40 39  1  0
 39 41  1  0
  6 42  1  6
  7 43  1  0
  7 44  1  0
  8 45  1  0
  8 46  1  0
 12 47  1  0
 12 48  1  0
 15 49  1  0
 17 50  1  0
 18 51  1  0
 21 52  1  0
 24 53  1  0
 24 54  1  0
 25 55  1  0
 27 56  1  0
 28 57  1  0
 29 58  1  0
 30 59  1  0
 32 60  1  0
 34 61  1  0
 38 62  1  0
 41 63  1  0
 41 64  1  0
M  CHG  3   5  -1  16   1  19  -1
M  END
>  <EmbedRMS>  (504) 
0.08828868820211151

$$$$

     RDKit          3D

 64 67  0  0  0  0  0  0  0  0999 V2000
   10.2848   43.7739   33.8066 C   0  0  0  0  0  0  0  0  0  0  0  0
   11.4070   43.5900   34.3638 O   0  0  0  0  0  0  0  0  0  0  0  0
    9.3683   42.7308   33.6985 O   0  0  0  0  0  0  0  0  0  0  0  0
    9.8864   41.2338   34.2831 P   0  0  0  0  0  5  0  0  0  0  0  0
   10.3659   41.4694   35.8740 O   0  0  0  0  0  1  0  0  0  0  0  0
    9.9496   45.1161   33.2549 C   0  0  2  0  0  0  0  0  0  0  0  0
   11.0749   46.0287   33.4731 N   0  0  0  0  0  0  0  0  0  0  0  0
    8.6776   45.6513   33.9426 C   0  0  0  0  0  0  0  0  0  0  0  0
    8.2052   46.9311   33.3246 C   0  0  0  0  0  0  0  0  0  0  0  0
    8.2852   48.1207   34.0572 O   0  0  0  0  0  0  0  0  0  0  0  0
    7.7495   46.9280   32.1482 O   0  0  0  0  0  0  0  0  0  0  0  0
    7.9545   49.3955   33.5101 C   0  0  0  0  0  0  0  0  0  0  0  0
    9.0113   49.8411   32.5261 C   0  0  0  0  0  0  0  0  0  0  0  0
   10.3856   49.9352   32.8791 C   0  0  0  0  0  0  0  0  0  0  0  0
    8.6214   50.1200   31.2031 C   0  0  0  0  0  0  0  0  0  0  0  0
   10.8501   49.6721   34.2171 N   0  0  0  0  0  4  0  0  0  0  0  0
   11.3236   50.2768   31.8868 C   0  0  0  0  0  0  0  0  0  0  0  0
    9.5673   50.4718   30.2399 C   0  0  0  0  0  0  0  0  0  0  0  0
   10.1214   50.0802   35.3095 O   0  0  0  0  0  1  0  0  0  0  0  0
   11.9976   49.2159   34.4020 O   0  0  0  0  0  0  0  0  0  0  0  0
   10.9160   50.5457   30.5799 C   0  0  0  0  0  0  0  0  0  0  0  0
    8.8087   40.1911   34.2072 O   0  0  0  0  0  0  0  0  0  0  0  0
   11.2390   40.7899   33.3683 O   0  0  0  0  0  0  0  0  0  0  0  0
   10.9199   40.6894   31.9945 C   0  0  0  0  0  0  0  0  0  0  0  0
   11.5173   39.3800   31.4395 C   0  0  0  0  0  0  0  0  0  0  0  0
   12.7480   39.0860   32.0731 O   0  0  0  0  0  0  0  0  0  0  0  0
   10.6032   38.1891   31.6666 C   0  0  0  0  0  0  0  0  0  0  0  0
   12.9336   37.6795   32.0279 C   0  0  0  0  0  0  0  0  0  0  0  0
    9.6397   38.0777   30.6456 O   0  0  0  0  0  0  0  0  0  0  0  0
   11.5739   37.0153   31.7057 C   0  0  0  0  0  0  0  0  0  0  0  0
   13.4903   37.2177   33.3231 N   0  0  0  0  0  0  0  0  0  0  0  0
   11.6210   36.3376   30.4695 O   0  0  0  0  0  0  0  0  0  0  0  0
   14.4761   36.3273   33.5725 C   0  0  0  0  0  0  0  0  0  0  0  0
   13.1179   37.6316   34.5684 C   0  0  0  0  0  0  0  0  0  0  0  0
   15.2063   35.6139   32.6737 N   0  0  0  0  0  0  0  0  0  0  0  0
   14.6734   36.2277   34.9180 C   0  0  0  0  0  0  0  0  0  0  0  0
   13.8225   37.0459   35.5779 N   0  0  0  0  0  0  0  0  0  0  0  0
   16.1636   34.7594   33.1546 C   0  0  0  0  0  0  0  0  0  0  0  0
   15.6515   35.3494   35.4129 C   0  0  0  0  0  0  0  0  0  0  0  0
   16.3791   34.6311   34.5041 N   0  0  0  0  0  0  0  0  0  0  0  0
   15.9001   35.1935   36.8088 N   0  0  0  0  0  0  0  0  0  0  0  0
    9.7644   45.0047   32.1623 H   0  0  0  0  0  0  0  0  0  0  0  0
   10.8483   46.9486   33.0318 H   0  0  0  0  0  0  0  0  0  0  0  0
   11.8994   45.6718   32.9361 H   0  0  0  0  0  0  0  0  0  0  0  0
    8.8756   45.8140   35.0250 H   0  0  0  0  0  0  0  0  0  0  0  0
    7.8562   44.9067   33.8567 H   0  0  0  0  0  0  0  0  0  0  0  0
    6.9482   49.3427   33.0389 H   0  0  0  0  0  0  0  0  0  0  0  0
    7.8711   50.1393   34.3278 H   0  0  0  0  0  0  0  0  0  0  0  0
    7.5811   50.0531   30.9094 H   0  0  0  0  0  0  0  0  0  0  0  0
   12.3761   50.3498   32.1300 H   0  0  0  0  0  0  0  0  0  0  0  0
    9.2539   50.6803   29.2251 H   0  0  0  0  0  0  0  0  0  0  0  0
   11.6483   50.8142   29.8294 H   0  0  0  0  0  0  0  0  0  0  0  0
   11.4019   41.5436   31.4726 H   0  0  0  0  0  0  0  0  0  0  0  0
    9.8321   40.7398   31.7543 H   0  0  0  0  0  0  0  0  0  0  0  0
   11.6984   39.5040   30.3468 H   0  0  0  0  0  0  0  0  0  0  0  0
   10.1091   38.2633   32.6649 H   0  0  0  0  0  0  0  0  0  0  0  0
   13.6656   37.4538   31.2207 H   0  0  0  0  0  0  0  0  0  0  0  0
    8.8966   38.6901   30.8851 H   0  0  0  0  0  0  0  0  0  0  0  0
   11.2845   36.3060   32.5175 H   0  0  0  0  0  0  0  0  0  0  0  0
   10.8523   35.7094   30.4590 H   0  0  0  0  0  0  0  0  0  0  0  0
   12.3353   38.3588   34.7439 H   0  0  0  0  0  0  0  0  0  0  0  0
   16.7570   34.1788   32.4619 H   0  0  0  0  0  0  0  0  0  0  0  0
   16.6360   34.5317   37.1414 H   0  0  0  0  0  0  0  0  0  0  0  0
   15.3529   35.7359   37.5136 H   0  0  0  0  0  0  0  0  0  0  0  0
  1  2  2  0
  1  3  1  0
  3  4  1  0
  4  5  1  0
  6  1  1  0
  7  6  1  0
  6  8  1  0
  8  9  1  0
  9 10  1  0
  9 11  2  0
 10 12  1  0
 12 13  1  0
 13 14  2  0
 15 13  1  0
 14 16  1  0
 14 17  1  0
 18 15  2  0
 16 19  1  0
 16 20  2  0
 17 21  2  0
 21 18  1  0
  4 22  2  0
  4 23  1  0
 24 23  1  0
 24 25  1  0
 25 26  1  0
 25 27  1  0
 26 28  1  0
 27 29  1  0
 27 30  1  0
 30 28  1  0
 28 31  1  0
 30 32  1  0
 33 31  1  0
 34 31  1  0
 35 33  2  0
 33 36  1  0
 37 34  2  0
 38 35  1  0
 36 39  2  0
 36 37  1  0
 40 38  2  0
 40 39  1  0
 39 41  1  0
  6 42  1  6
  7 43  1  0
  7 44  1  0
  8 45  1  0
  8 46  1  0
 12 47  1  0
 12 48  1  0
 15 49  1  0
 17 50  1  0
 18 51  1  0
 21 52  1  0
 24 53  1  0
 24 54  1  0
 25 55  1  0
 27 56  1  0
 28 57  1  0
 29 58  1  0
 30 59  1  0
 32 60  1  0
 34 61  1  0
 38 62  1  0
 41 63  1  0
 41 64  1  0
M  CHG  3   5  -1  16   1  19  -1
M  END
>  <EmbedRMS>  (505) 
0.08953994521590694

$$$$

     RDKit          3D

 64 67  0  0  0  0  0  0  0  0999 V2000
   10.2845   43.7742   33.8068 C   0  0  0  0  0  0  0  0  0  0  0  0
   11.4069   43.5903   34.3635 O   0  0  0  0  0  0  0  0  0  0  0  0
    9.3681   42.7309   33.6987 O   0  0  0  0  0  0  0  0  0  0  0  0
    9.8860   41.2341   34.2835 P   0  0  0  0  0  5  0  0  0  0  0  0
   10.3662   41.4697   35.8741 O   0  0  0  0  0  1  0  0  0  0  0  0
    9.9492   45.1163   33.2545 C   0  0  2  0  0  0  0  0  0  0  0  0
   11.0752   46.0281   33.4735 N   0  0  0  0  0  0  0  0  0  0  0  0
    8.6778   45.6530   33.9415 C   0  0  0  0  0  0  0  0  0  0  0  0
    8.1782   46.9020   33.2839 C   0  0  0  0  0  0  0  0  0  0  0  0
    8.4497   48.1446   33.8680 O   0  0  0  0  0  0  0  0  0  0  0  0
    7.5400   46.8256   32.1983 O   0  0  0  0  0  0  0  0  0  0  0  0
    8.0090   49.3823   33.3096 C   0  0  0  0  0  0  0  0  0  0  0  0
    6.5093   49.5491   33.4371 C   0  0  0  0  0  0  0  0  0  0  0  0
    5.7506   50.2489   32.4625 C   0  0  0  0  0  0  0  0  0  0  0  0
    5.8510   49.0171   34.5630 C   0  0  0  0  0  0  0  0  0  0  0  0
    6.3783   50.9120   31.3521 N   0  0  0  0  0  4  0  0  0  0  0  0
    4.3520   50.3149   32.5971 C   0  0  0  0  0  0  0  0  0  0  0  0
    4.4642   49.1099   34.6878 C   0  0  0  0  0  0  0  0  0  0  0  0
    7.5095   51.6704   31.5479 O   0  0  0  0  0  1  0  0  0  0  0  0
    5.7960   50.9738   30.2495 O   0  0  0  0  0  0  0  0  0  0  0  0
    3.7149   49.7466   33.7006 C   0  0  0  0  0  0  0  0  0  0  0  0
    8.8083   40.1914   34.2081 O   0  0  0  0  0  0  0  0  0  0  0  0
   11.2377   40.7897   33.3680 O   0  0  0  0  0  0  0  0  0  0  0  0
   10.9164   40.6889   31.9948 C   0  0  0  0  0  0  0  0  0  0  0  0
   11.5254   39.3871   31.4363 C   0  0  0  0  0  0  0  0  0  0  0  0
   12.7488   39.0878   32.0802 O   0  0  0  0  0  0  0  0  0  0  0  0
   10.6101   38.1909   31.6470 C   0  0  0  0  0  0  0  0  0  0  0  0
   12.9348   37.6806   32.0292 C   0  0  0  0  0  0  0  0  0  0  0  0
    9.6126   38.0874   30.6546 O   0  0  0  0  0  0  0  0  0  0  0  0
   11.5767   37.0133   31.7025 C   0  0  0  0  0  0  0  0  0  0  0  0
   13.4901   37.2164   33.3236 N   0  0  0  0  0  0  0  0  0  0  0  0
   11.6321   36.3230   30.4741 O   0  0  0  0  0  0  0  0  0  0  0  0
   14.4763   36.3266   33.5728 C   0  0  0  0  0  0  0  0  0  0  0  0
   13.1179   37.6307   34.5689 C   0  0  0  0  0  0  0  0  0  0  0  0
   15.2065   35.6135   32.6739 N   0  0  0  0  0  0  0  0  0  0  0  0
   14.6736   36.2272   34.9182 C   0  0  0  0  0  0  0  0  0  0  0  0
   13.8228   37.0453   35.5783 N   0  0  0  0  0  0  0  0  0  0  0  0
   16.1640   34.7592   33.1547 C   0  0  0  0  0  0  0  0  0  0  0  0
   15.6519   35.3491   35.4131 C   0  0  0  0  0  0  0  0  0  0  0  0
   16.3795   34.6309   34.5042 N   0  0  0  0  0  0  0  0  0  0  0  0
   15.9005   35.1932   36.8089 N   0  0  0  0  0  0  0  0  0  0  0  0
    9.7641   45.0046   32.1619 H   0  0  0  0  0  0  0  0  0  0  0  0
   10.8446   46.9560   33.0508 H   0  0  0  0  0  0  0  0  0  0  0  0
   11.8948   45.6783   32.9243 H   0  0  0  0  0  0  0  0  0  0  0  0
    7.8674   44.8928   33.8948 H   0  0  0  0  0  0  0  0  0  0  0  0
    8.8856   45.8578   35.0148 H   0  0  0  0  0  0  0  0  0  0  0  0
    8.3325   49.4192   32.2478 H   0  0  0  0  0  0  0  0  0  0  0  0
    8.5047   50.2136   33.8526 H   0  0  0  0  0  0  0  0  0  0  0  0
    6.4096   48.5144   35.3427 H   0  0  0  0  0  0  0  0  0  0  0  0
    3.7552   50.8341   31.8577 H   0  0  0  0  0  0  0  0  0  0  0  0
    3.9693   48.6838   35.5510 H   0  0  0  0  0  0  0  0  0  0  0  0
    2.6391   49.8146   33.7984 H   0  0  0  0  0  0  0  0  0  0  0  0
   11.3853   41.5505   31.4731 H   0  0  0  0  0  0  0  0  0  0  0  0
    9.8264   40.7205   31.7574 H   0  0  0  0  0  0  0  0  0  0  0  0
   11.7275   39.5284   30.3500 H   0  0  0  0  0  0  0  0  0  0  0  0
   10.1123   38.2733   32.6390 H   0  0  0  0  0  0  0  0  0  0  0  0
   13.6686   37.4589   31.2224 H   0  0  0  0  0  0  0  0  0  0  0  0
   10.0514   38.1109   29.7647 H   0  0  0  0  0  0  0  0  0  0  0  0
   11.2801   36.3128   32.5195 H   0  0  0  0  0  0  0  0  0  0  0  0
   10.8624   35.6960   30.4645 H   0  0  0  0  0  0  0  0  0  0  0  0
   12.3356   38.3581   34.7444 H   0  0  0  0  0  0  0  0  0  0  0  0
   16.7574   34.1787   32.4619 H   0  0  0  0  0  0  0  0  0  0  0  0
   15.3532   35.7355   37.5138 H   0  0  0  0  0  0  0  0  0  0  0  0
   16.6364   34.5315   37.1415 H   0  0  0  0  0  0  0  0  0  0  0  0
  1  2  2  0
  1  3  1  0
  3  4  1  0
  4  5  1  0
  6  1  1  0
  7  6  1  0
  6  8  1  0
  8  9  1  0
  9 10  1  0
  9 11  2  0
 10 12  1  0
 12 13  1  0
 13 14  2  0
 15 13  1  0
 14 16  1  0
 14 17  1  0
 18 15  2  0
 16 19  1  0
 16 20  2  0
 17 21  2  0
 21 18  1  0
  4 22  2  0
  4 23  1  0
 24 23  1  0
 24 25  1  0
 25 26  1  0
 25 27  1  0
 26 28  1  0
 27 29  1  0
 27 30  1  0
 30 28  1  0
 28 31  1  0
 30 32  1  0
 33 31  1  0
 34 31  1  0
 35 33  2  0
 33 36  1  0
 37 34  2  0
 38 35  1  0
 36 39  2  0
 36 37  1  0
 40 38  2  0
 40 39  1  0
 39 41  1  0
  6 42  1  6
  7 43  1  0
  7 44  1  0
  8 45  1  0
  8 46  1  0
 12 47  1  0
 12 48  1  0
 15 49  1  0
 17 50  1  0
 18 51  1  0
 21 52  1  0
 24 53  1  0
 24 54  1  0
 25 55  1  0
 27 56  1  0
 28 57  1  0
 29 58  1  0
 30 59  1  0
 32 60  1  0
 34 61  1  0
 38 62  1  0
 41 63  1  0
 41 64  1  0
M  CHG  3   5  -1  16   1  19  -1
M  END
>  <EmbedRMS>  (506) 
0.08822580193852357

$$$$

     RDKit          3D

 64 67  0  0  0  0  0  0  0  0999 V2000
   10.2820   43.7755   33.8091 C   0  0  0  0  0  0  0  0  0  0  0  0
   11.4049   43.5921   34.3652 O   0  0  0  0  0  0  0  0  0  0  0  0
    9.3695   42.7295   33.6987 O   0  0  0  0  0  0  0  0  0  0  0  0
    9.8873   41.2334   34.2830 P   0  0  0  0  0  5  0  0  0  0  0  0
   10.3675   41.4691   35.8736 O   0  0  0  0  0  1  0  0  0  0  0  0
    9.9497   45.1195   33.2513 C   0  0  2  0  0  0  0  0  0  0  0  0
   11.0767   46.0269   33.4737 N   0  0  0  0  0  0  0  0  0  0  0  0
    8.6827   45.6971   33.9171 C   0  0  0  0  0  0  0  0  0  0  0  0
    7.4510   44.9280   33.5448 C   0  0  0  0  0  0  0  0  0  0  0  0
    7.0394   44.8925   32.2097 O   0  0  0  0  0  0  0  0  0  0  0  0
    6.8064   44.3066   34.4335 O   0  0  0  0  0  0  0  0  0  0  0  0
    5.9435   44.1002   31.7661 C   0  0  0  0  0  0  0  0  0  0  0  0
    5.7788   44.2585   30.2775 C   0  0  0  0  0  0  0  0  0  0  0  0
    6.5077   43.4705   29.3481 C   0  0  0  0  0  0  0  0  0  0  0  0
    4.8702   45.2203   29.8006 C   0  0  0  0  0  0  0  0  0  0  0  0
    7.4945   42.5153   29.7758 N   0  0  0  0  0  4  0  0  0  0  0  0
    6.2599   43.6306   27.9724 C   0  0  0  0  0  0  0  0  0  0  0  0
    4.6519   45.3755   28.4310 C   0  0  0  0  0  0  0  0  0  0  0  0
    8.3720   42.8265   30.7875 O   0  0  0  0  0  1  0  0  0  0  0  0
    7.6858   41.4734   29.1151 O   0  0  0  0  0  0  0  0  0  0  0  0
    5.3394   44.5767   27.5191 C   0  0  0  0  0  0  0  0  0  0  0  0
    8.8087   40.1916   34.2077 O   0  0  0  0  0  0  0  0  0  0  0  0
   11.2382   40.7902   33.3653 O   0  0  0  0  0  0  0  0  0  0  0  0
   10.9131   40.6833   31.9931 C   0  0  0  0  0  0  0  0  0  0  0  0
   11.5167   39.3769   31.4390 C   0  0  0  0  0  0  0  0  0  0  0  0
   12.7472   39.0853   32.0738 O   0  0  0  0  0  0  0  0  0  0  0  0
   10.6049   38.1863   31.6666 C   0  0  0  0  0  0  0  0  0  0  0  0
   12.9346   37.6790   32.0281 C   0  0  0  0  0  0  0  0  0  0  0  0
    9.6379   38.0917   30.6484 O   0  0  0  0  0  0  0  0  0  0  0  0
   11.5762   37.0127   31.7054 C   0  0  0  0  0  0  0  0  0  0  0  0
   13.4909   37.2176   33.3233 N   0  0  0  0  0  0  0  0  0  0  0  0
   11.6236   36.3370   30.4681 O   0  0  0  0  0  0  0  0  0  0  0  0
   14.4765   36.3271   33.5727 C   0  0  0  0  0  0  0  0  0  0  0  0
   13.1181   37.6315   34.5685 C   0  0  0  0  0  0  0  0  0  0  0  0
   15.2066   35.6137   32.6739 N   0  0  0  0  0  0  0  0  0  0  0  0
   14.6735   36.2276   34.9182 C   0  0  0  0  0  0  0  0  0  0  0  0
   13.8227   37.0457   35.5781 N   0  0  0  0  0  0  0  0  0  0  0  0
   16.1638   34.7592   33.1548 C   0  0  0  0  0  0  0  0  0  0  0  0
   15.6517   35.3492   35.4131 C   0  0  0  0  0  0  0  0  0  0  0  0
   16.3792   34.6309   34.5043 N   0  0  0  0  0  0  0  0  0  0  0  0
   15.9002   35.1934   36.8090 N   0  0  0  0  0  0  0  0  0  0  0  0
    9.7786   45.0172   32.1555 H   0  0  0  0  0  0  0  0  0  0  0  0
   11.8902   45.6886   32.9083 H   0  0  0  0  0  0  0  0  0  0  0  0
   10.8349   46.9627   33.0733 H   0  0  0  0  0  0  0  0  0  0  0  0
    8.8081   45.7103   35.0228 H   0  0  0  0  0  0  0  0  0  0  0  0
    8.5336   46.7471   33.5855 H   0  0  0  0  0  0  0  0  0  0  0  0
    5.0184   44.4203   32.2944 H   0  0  0  0  0  0  0  0  0  0  0  0
    6.1131   43.0326   32.0246 H   0  0  0  0  0  0  0  0  0  0  0  0
    4.3189   45.8453   30.4926 H   0  0  0  0  0  0  0  0  0  0  0  0
    6.7987   43.0349   27.2463 H   0  0  0  0  0  0  0  0  0  0  0  0
    3.9442   46.1138   28.0765 H   0  0  0  0  0  0  0  0  0  0  0  0
    5.1657   44.6967   26.4575 H   0  0  0  0  0  0  0  0  0  0  0  0
    9.8226   40.7122   31.7599 H   0  0  0  0  0  0  0  0  0  0  0  0
   11.3805   41.5416   31.4648 H   0  0  0  0  0  0  0  0  0  0  0  0
   11.6987   39.5013   30.3465 H   0  0  0  0  0  0  0  0  0  0  0  0
   10.1097   38.2765   32.6625 H   0  0  0  0  0  0  0  0  0  0  0  0
   13.6674   37.4544   31.2212 H   0  0  0  0  0  0  0  0  0  0  0  0
    8.9768   37.4172   30.9536 H   0  0  0  0  0  0  0  0  0  0  0  0
   11.2861   36.3038   32.5173 H   0  0  0  0  0  0  0  0  0  0  0  0
   10.8687   35.6922   30.4651 H   0  0  0  0  0  0  0  0  0  0  0  0
   12.3355   38.3586   34.7439 H   0  0  0  0  0  0  0  0  0  0  0  0
   16.7572   34.1786   32.4621 H   0  0  0  0  0  0  0  0  0  0  0  0
   15.3530   35.7358   37.5138 H   0  0  0  0  0  0  0  0  0  0  0  0
   16.6361   34.5315   37.1415 H   0  0  0  0  0  0  0  0  0  0  0  0
  1  2  2  0
  1  3  1  0
  3  4  1  0
  4  5  1  0
  6  1  1  0
  7  6  1  0
  6  8  1  0
  8  9  1  0
  9 10  1  0
  9 11  2  0
 10 12  1  0
 12 13  1  0
 13 14  2  0
 15 13  1  0
 14 16  1  0
 14 17  1  0
 18 15  2  0
 16 19  1  0
 16 20  2  0
 17 21  2  0
 21 18  1  0
  4 22  2  0
  4 23  1  0
 24 23  1  0
 24 25  1  0
 25 26  1  0
 25 27  1  0
 26 28  1  0
 27 29  1  0
 27 30  1  0
 30 28  1  0
 28 31  1  0
 30 32  1  0
 33 31  1  0
 34 31  1  0
 35 33  2  0
 33 36  1  0
 37 34  2  0
 38 35  1  0
 36 39  2  0
 36 37  1  0
 40 38  2  0
 40 39  1  0
 39 41  1  0
  6 42  1  6
  7 43  1  0
  7 44  1  0
  8 45  1  0
  8 46  1  0
 12 47  1  0
 12 48  1  0
 15 49  1  0
 17 50  1  0
 18 51  1  0
 21 52  1  0
 24 53  1  0
 24 54  1  0
 25 55  1  0
 27 56  1  0
 28 57  1  0
 29 58  1  0
 30 59  1  0
 32 60  1  0
 34 61  1  0
 38 62  1  0
 41 63  1  0
 41 64  1  0
M  CHG  3   5  -1  16   1  19  -1
M  END
>  <EmbedRMS>  (507) 
0.0892591936420662

$$$$

     RDKit          3D

 64 67  0  0  0  0  0  0  0  0999 V2000
   10.2860   43.7721   33.8047 C   0  0  0  0  0  0  0  0  0  0  0  0
   11.4085   43.5884   34.3610 O   0  0  0  0  0  0  0  0  0  0  0  0
    9.3673   42.7311   33.6995 O   0  0  0  0  0  0  0  0  0  0  0  0
    9.8850   41.2344   34.2845 P   0  0  0  0  0  5  0  0  0  0  0  0
   10.3655   41.4703   35.8749 O   0  0  0  0  0  1  0  0  0  0  0  0
    9.9530   45.1149   33.2535 C   0  0  2  0  0  0  0  0  0  0  0  0
   11.0713   46.0333   33.4765 N   0  0  0  0  0  0  0  0  0  0  0  0
    8.6604   45.6659   33.8889 C   0  0  0  0  0  0  0  0  0  0  0  0
    8.7933   45.8673   35.3693 C   0  0  0  0  0  0  0  0  0  0  0  0
    9.3633   47.0500   35.8527 O   0  0  0  0  0  0  0  0  0  0  0  0
    8.4306   44.9543   36.1599 O   0  0  0  0  0  0  0  0  0  0  0  0
    9.5049   47.3484   37.2402 C   0  0  0  0  0  0  0  0  0  0  0  0
    8.1686   47.7018   37.8493 C   0  0  0  0  0  0  0  0  0  0  0  0
    7.5701   48.9810   37.6796 C   0  0  0  0  0  0  0  0  0  0  0  0
    7.5075   46.7320   38.6254 C   0  0  0  0  0  0  0  0  0  0  0  0
    8.1858   50.0187   36.8935 N   0  0  0  0  0  4  0  0  0  0  0  0
    6.3465   49.2522   38.3182 C   0  0  0  0  0  0  0  0  0  0  0  0
    6.2865   47.0185   39.2364 C   0  0  0  0  0  0  0  0  0  0  0  0
    7.9557   51.3401   37.2012 O   0  0  0  0  0  1  0  0  0  0  0  0
    8.7921   49.7481   35.8372 O   0  0  0  0  0  0  0  0  0  0  0  0
    5.7091   48.2771   39.0862 C   0  0  0  0  0  0  0  0  0  0  0  0
    8.8076   40.1914   34.2088 O   0  0  0  0  0  0  0  0  0  0  0  0
   11.2368   40.7903   33.3690 O   0  0  0  0  0  0  0  0  0  0  0  0
   10.9155   40.6897   31.9960 C   0  0  0  0  0  0  0  0  0  0  0  0
   11.5270   39.3898   31.4374 C   0  0  0  0  0  0  0  0  0  0  0  0
   12.7508   39.0916   32.0839 O   0  0  0  0  0  0  0  0  0  0  0  0
   10.6122   38.1916   31.6452 C   0  0  0  0  0  0  0  0  0  0  0  0
   12.9429   37.6852   32.0295 C   0  0  0  0  0  0  0  0  0  0  0  0
    9.6070   38.0858   30.6603 O   0  0  0  0  0  0  0  0  0  0  0  0
   11.5845   37.0186   31.6879 C   0  0  0  0  0  0  0  0  0  0  0  0
   13.4899   37.2163   33.3250 N   0  0  0  0  0  0  0  0  0  0  0  0
   11.6201   36.3062   30.4693 O   0  0  0  0  0  0  0  0  0  0  0  0
   14.4759   36.3263   33.5738 C   0  0  0  0  0  0  0  0  0  0  0  0
   13.1176   37.6307   34.5699 C   0  0  0  0  0  0  0  0  0  0  0  0
   15.2065   35.6139   32.6746 N   0  0  0  0  0  0  0  0  0  0  0  0
   14.6731   36.2267   34.9191 C   0  0  0  0  0  0  0  0  0  0  0  0
   13.8224   37.0450   35.5792 N   0  0  0  0  0  0  0  0  0  0  0  0
   16.1640   34.7596   33.1551 C   0  0  0  0  0  0  0  0  0  0  0  0
   15.6517   35.3489   35.4136 C   0  0  0  0  0  0  0  0  0  0  0  0
   16.3795   34.6310   34.5046 N   0  0  0  0  0  0  0  0  0  0  0  0
   15.9006   35.1931   36.8094 N   0  0  0  0  0  0  0  0  0  0  0  0
    9.7832   45.0053   32.1586 H   0  0  0  0  0  0  0  0  0  0  0  0
   11.8825   45.7128   32.8979 H   0  0  0  0  0  0  0  0  0  0  0  0
   10.8098   46.9718   33.0954 H   0  0  0  0  0  0  0  0  0  0  0  0
    8.4036   46.6388   33.4170 H   0  0  0  0  0  0  0  0  0  0  0  0
    7.8141   44.9746   33.6814 H   0  0  0  0  0  0  0  0  0  0  0  0
   10.2044   48.2022   37.3579 H   0  0  0  0  0  0  0  0  0  0  0  0
    9.9766   46.4877   37.7639 H   0  0  0  0  0  0  0  0  0  0  0  0
    7.9433   45.7509   38.7681 H   0  0  0  0  0  0  0  0  0  0  0  0
    5.8737   50.2198   38.2078 H   0  0  0  0  0  0  0  0  0  0  0  0
    5.7900   46.2638   39.8327 H   0  0  0  0  0  0  0  0  0  0  0  0
    4.7635   48.4980   39.5645 H   0  0  0  0  0  0  0  0  0  0  0  0
    9.8254   40.7190   31.7587 H   0  0  0  0  0  0  0  0  0  0  0  0
   11.3825   41.5526   31.4747 H   0  0  0  0  0  0  0  0  0  0  0  0
   11.7318   39.5338   30.3520 H   0  0  0  0  0  0  0  0  0  0  0  0
   10.1214   38.2682   32.6413 H   0  0  0  0  0  0  0  0  0  0  0  0
   13.6882   37.4708   31.2319 H   0  0  0  0  0  0  0  0  0  0  0  0
   10.0257   38.1751   29.7656 H   0  0  0  0  0  0  0  0  0  0  0  0
   11.2796   36.3123   32.4915 H   0  0  0  0  0  0  0  0  0  0  0  0
   11.9872   36.9099   29.7714 H   0  0  0  0  0  0  0  0  0  0  0  0
   12.3365   38.3595   34.7453 H   0  0  0  0  0  0  0  0  0  0  0  0
   16.7577   34.1794   32.4622 H   0  0  0  0  0  0  0  0  0  0  0  0
   15.3532   35.7351   37.5143 H   0  0  0  0  0  0  0  0  0  0  0  0
   16.6368   34.5316   37.1418 H   0  0  0  0  0  0  0  0  0  0  0  0
  1  2  2  0
  1  3  1  0
  3  4  1  0
  4  5  1  0
  6  1  1  0
  7  6  1  0
  6  8  1  0
  8  9  1  0
  9 10  1  0
  9 11  2  0
 10 12  1  0
 12 13  1  0
 13 14  2  0
 15 13  1  0
 14 16  1  0
 14 17  1  0
 18 15  2  0
 16 19  1  0
 16 20  2  0
 17 21  2  0
 21 18  1  0
  4 22  2  0
  4 23  1  0
 24 23  1  0
 24 25  1  0
 25 26  1  0
 25 27  1  0
 26 28  1  0
 27 29  1  0
 27 30  1  0
 30 28  1  0
 28 31  1  0
 30 32  1  0
 33 31  1  0
 34 31  1  0
 35 33  2  0
 33 36  1  0
 37 34  2  0
 38 35  1  0
 36 39  2  0
 36 37  1  0
 40 38  2  0
 40 39  1  0
 39 41  1  0
  6 42  1  6
  7 43  1  0
  7 44  1  0
  8 45  1  0
  8 46  1  0
 12 47  1  0
 12 48  1  0
 15 49  1  0
 17 50  1  0
 18 51  1  0
 21 52  1  0
 24 53  1  0
 24 54  1  0
 25 55  1  0
 27 56  1  0
 28 57  1  0
 29 58  1  0
 30 59  1  0
 32 60  1  0
 34 61  1  0
 38 62  1  0
 41 63  1  0
 41 64  1  0
M  CHG  3   5  -1  16   1  19  -1
M  END
>  <EmbedRMS>  (508) 
0.08700985894566086

$$$$

     RDKit          3D

 64 67  0  0  0  0  0  0  0  0999 V2000
   10.2861   43.7718   33.8044 C   0  0  0  0  0  0  0  0  0  0  0  0
   11.4086   43.5881   34.3607 O   0  0  0  0  0  0  0  0  0  0  0  0
    9.3673   42.7310   33.6992 O   0  0  0  0  0  0  0  0  0  0  0  0
    9.8856   41.2340   34.2831 P   0  0  0  0  0  5  0  0  0  0  0  0
   10.3666   41.4698   35.8735 O   0  0  0  0  0  1  0  0  0  0  0  0
    9.9532   45.1148   33.2533 C   0  0  2  0  0  0  0  0  0  0  0  0
   11.0710   46.0334   33.4770 N   0  0  0  0  0  0  0  0  0  0  0  0
    8.6592   45.6656   33.8868 C   0  0  0  0  0  0  0  0  0  0  0  0
    8.7695   45.8185   35.3755 C   0  0  0  0  0  0  0  0  0  0  0  0
    9.4904   46.8916   35.9059 O   0  0  0  0  0  0  0  0  0  0  0  0
    8.2383   44.9624   36.1347 O   0  0  0  0  0  0  0  0  0  0  0  0
    9.6446   47.0966   37.3059 C   0  0  0  0  0  0  0  0  0  0  0  0
   10.5284   48.2929   37.5403 C   0  0  0  0  0  0  0  0  0  0  0  0
   11.9431   48.1891   37.6095 C   0  0  0  0  0  0  0  0  0  0  0  0
    9.9227   49.5537   37.6863 C   0  0  0  0  0  0  0  0  0  0  0  0
   12.6231   46.9360   37.4127 N   0  0  0  0  0  4  0  0  0  0  0  0
   12.7005   49.3438   37.8807 C   0  0  0  0  0  0  0  0  0  0  0  0
   10.6939   50.6891   37.9379 C   0  0  0  0  0  0  0  0  0  0  0  0
   12.2120   46.0623   36.4332 O   0  0  0  0  0  1  0  0  0  0  0  0
   13.6963   46.7065   38.0080 O   0  0  0  0  0  0  0  0  0  0  0  0
   12.0794   50.5831   38.0424 C   0  0  0  0  0  0  0  0  0  0  0  0
    8.8077   40.1914   34.2083 O   0  0  0  0  0  0  0  0  0  0  0  0
   11.2369   40.7903   33.3659 O   0  0  0  0  0  0  0  0  0  0  0  0
   10.9136   40.6843   31.9931 C   0  0  0  0  0  0  0  0  0  0  0  0
   11.5175   39.3773   31.4395 C   0  0  0  0  0  0  0  0  0  0  0  0
   12.7477   39.0869   32.0756 O   0  0  0  0  0  0  0  0  0  0  0  0
   10.6069   38.1851   31.6657 C   0  0  0  0  0  0  0  0  0  0  0  0
   12.9372   37.6811   32.0290 C   0  0  0  0  0  0  0  0  0  0  0  0
    9.6404   38.0882   30.6475 O   0  0  0  0  0  0  0  0  0  0  0  0
   11.5789   37.0134   31.7045 C   0  0  0  0  0  0  0  0  0  0  0  0
   13.4915   37.2182   33.3239 N   0  0  0  0  0  0  0  0  0  0  0  0
   11.6125   36.3389   30.4674 O   0  0  0  0  0  0  0  0  0  0  0  0
   14.4766   36.3272   33.5730 C   0  0  0  0  0  0  0  0  0  0  0  0
   13.1184   37.6317   34.5690 C   0  0  0  0  0  0  0  0  0  0  0  0
   15.2066   35.6139   32.6741 N   0  0  0  0  0  0  0  0  0  0  0  0
   14.6735   36.2274   34.9184 C   0  0  0  0  0  0  0  0  0  0  0  0
   13.8228   37.0456   35.5785 N   0  0  0  0  0  0  0  0  0  0  0  0
   16.1637   34.7593   33.1548 C   0  0  0  0  0  0  0  0  0  0  0  0
   15.6517   35.3491   35.4132 C   0  0  0  0  0  0  0  0  0  0  0  0
   16.3792   34.6308   34.5043 N   0  0  0  0  0  0  0  0  0  0  0  0
   15.9004   35.1932   36.8091 N   0  0  0  0  0  0  0  0  0  0  0  0
    9.7850   45.0058   32.1582 H   0  0  0  0  0  0  0  0  0  0  0  0
   11.8839   45.7119   32.9013 H   0  0  0  0  0  0  0  0  0  0  0  0
   10.8111   46.9717   33.0944 H   0  0  0  0  0  0  0  0  0  0  0  0
    8.4223   46.6562   33.4427 H   0  0  0  0  0  0  0  0  0  0  0  0
    7.8085   44.9918   33.6424 H   0  0  0  0  0  0  0  0  0  0  0  0
    8.6450   47.2590   37.7659 H   0  0  0  0  0  0  0  0  0  0  0  0
   10.0767   46.1922   37.7853 H   0  0  0  0  0  0  0  0  0  0  0  0
    8.8467   49.6571   37.6156 H   0  0  0  0  0  0  0  0  0  0  0  0
   13.7798   49.2876   37.9460 H   0  0  0  0  0  0  0  0  0  0  0  0
   10.2153   51.6527   38.0560 H   0  0  0  0  0  0  0  0  0  0  0  0
   12.6752   51.4648   38.2407 H   0  0  0  0  0  0  0  0  0  0  0  0
   11.3851   41.5414   31.4666 H   0  0  0  0  0  0  0  0  0  0  0  0
    9.8234   40.7188   31.7570 H   0  0  0  0  0  0  0  0  0  0  0  0
   11.7007   39.5017   30.3471 H   0  0  0  0  0  0  0  0  0  0  0  0
   10.1098   38.2751   32.6606 H   0  0  0  0  0  0  0  0  0  0  0  0
   13.6713   37.4591   31.2227 H   0  0  0  0  0  0  0  0  0  0  0  0
    9.0033   37.3835   30.9351 H   0  0  0  0  0  0  0  0  0  0  0  0
   11.2706   36.3048   32.5088 H   0  0  0  0  0  0  0  0  0  0  0  0
   12.1443   35.5136   30.6141 H   0  0  0  0  0  0  0  0  0  0  0  0
   12.3362   38.3592   34.7444 H   0  0  0  0  0  0  0  0  0  0  0  0
   16.7571   34.1787   32.4620 H   0  0  0  0  0  0  0  0  0  0  0  0
   15.3532   35.7355   37.5139 H   0  0  0  0  0  0  0  0  0  0  0  0
   16.6363   34.5314   37.1416 H   0  0  0  0  0  0  0  0  0  0  0  0
  1  2  2  0
  1  3  1  0
  3  4  1  0
  4  5  1  0
  6  1  1  0
  7  6  1  0
  6  8  1  0
  8  9  1  0
  9 10  1  0
  9 11  2  0
 10 12  1  0
 12 13  1  0
 13 14  2  0
 15 13  1  0
 14 16  1  0
 14 17  1  0
 18 15  2  0
 16 19  1  0
 16 20  2  0
 17 21  2  0
 21 18  1  0
  4 22  2  0
  4 23  1  0
 24 23  1  0
 24 25  1  0
 25 26  1  0
 25 27  1  0
 26 28  1  0
 27 29  1  0
 27 30  1  0
 30 28  1  0
 28 31  1  0
 30 32  1  0
 33 31  1  0
 34 31  1  0
 35 33  2  0
 33 36  1  0
 37 34  2  0
 38 35  1  0
 36 39  2  0
 36 37  1  0
 40 38  2  0
 40 39  1  0
 39 41  1  0
  6 42  1  6
  7 43  1  0
  7 44  1  0
  8 45  1  0
  8 46  1  0
 12 47  1  0
 12 48  1  0
 15 49  1  0
 17 50  1  0
 18 51  1  0
 21 52  1  0
 24 53  1  0
 24 54  1  0
 25 55  1  0
 27 56  1  0
 28 57  1  0
 29 58  1  0
 30 59  1  0
 32 60  1  0
 34 61  1  0
 38 62  1  0
 41 63  1  0
 41 64  1  0
M  CHG  3   5  -1  16   1  19  -1
M  END
>  <EmbedRMS>  (509) 
0.08880930783663138

$$$$

     RDKit          3D

 64 67  0  0  0  0  0  0  0  0999 V2000
   10.2864   43.7709   33.8098 C   0  0  0  0  0  0  0  0  0  0  0  0
   11.4102   43.5817   34.3616 O   0  0  0  0  0  0  0  0  0  0  0  0
    9.3672   42.7306   33.7016 O   0  0  0  0  0  0  0  0  0  0  0  0
    9.8851   41.2327   34.2837 P   0  0  0  0  0  5  0  0  0  0  0  0
   10.3652   41.4675   35.8745 O   0  0  0  0  0  1  0  0  0  0  0  0
    9.9608   45.1123   33.2473 C   0  0  2  0  0  0  0  0  0  0  0  0
   11.0653   46.0481   33.4748 N   0  0  0  0  0  0  0  0  0  0  0  0
    8.6653   45.6566   33.8719 C   0  0  0  0  0  0  0  0  0  0  0  0
    8.2721   46.9587   33.2466 C   0  0  0  0  0  0  0  0  0  0  0  0
    7.6253   46.9562   32.0060 O   0  0  0  0  0  0  0  0  0  0  0  0
    8.5551   48.0424   33.8256 O   0  0  0  0  0  0  0  0  0  0  0  0
    7.2176   48.1439   31.3282 C   0  0  0  0  0  0  0  0  0  0  0  0
    6.0772   48.8169   32.0584 C   0  0  0  0  0  0  0  0  0  0  0  0
    6.0717   50.2038   32.3603 C   0  0  0  0  0  0  0  0  0  0  0  0
    4.9372   48.0478   32.3550 C   0  0  0  0  0  0  0  0  0  0  0  0
    7.2045   51.0418   32.0883 N   0  0  0  0  0  4  0  0  0  0  0  0
    4.9274   50.7772   32.9416 C   0  0  0  0  0  0  0  0  0  0  0  0
    3.8169   48.6315   32.9483 C   0  0  0  0  0  0  0  0  0  0  0  0
    8.4341   50.7273   32.6181 O   0  0  0  0  0  1  0  0  0  0  0  0
    7.0327   52.1770   31.5984 O   0  0  0  0  0  0  0  0  0  0  0  0
    3.8108   49.9946   33.2383 C   0  0  0  0  0  0  0  0  0  0  0  0
    8.8074   40.1901   34.2071 O   0  0  0  0  0  0  0  0  0  0  0  0
   11.2381   40.7897   33.3686 O   0  0  0  0  0  0  0  0  0  0  0  0
   10.9194   40.6894   31.9948 C   0  0  0  0  0  0  0  0  0  0  0  0
   11.5171   39.3800   31.4396 C   0  0  0  0  0  0  0  0  0  0  0  0
   12.7479   39.0861   32.0733 O   0  0  0  0  0  0  0  0  0  0  0  0
   10.6031   38.1891   31.6666 C   0  0  0  0  0  0  0  0  0  0  0  0
   12.9335   37.6796   32.0279 C   0  0  0  0  0  0  0  0  0  0  0  0
    9.6397   38.0777   30.6456 O   0  0  0  0  0  0  0  0  0  0  0  0
   11.5739   37.0154   31.7057 C   0  0  0  0  0  0  0  0  0  0  0  0
   13.4903   37.2178   33.3231 N   0  0  0  0  0  0  0  0  0  0  0  0
   11.6211   36.3376   30.4695 O   0  0  0  0  0  0  0  0  0  0  0  0
   14.4761   36.3273   33.5725 C   0  0  0  0  0  0  0  0  0  0  0  0
   13.1179   37.6317   34.5684 C   0  0  0  0  0  0  0  0  0  0  0  0
   15.2063   35.6139   32.6737 N   0  0  0  0  0  0  0  0  0  0  0  0
   14.6733   36.2277   34.9179 C   0  0  0  0  0  0  0  0  0  0  0  0
   13.8225   37.0459   35.5779 N   0  0  0  0  0  0  0  0  0  0  0  0
   16.1636   34.7594   33.1546 C   0  0  0  0  0  0  0  0  0  0  0  0
   15.6515   35.3494   35.4129 C   0  0  0  0  0  0  0  0  0  0  0  0
   16.3791   34.6311   34.5041 N   0  0  0  0  0  0  0  0  0  0  0  0
   15.9001   35.1935   36.8088 N   0  0  0  0  0  0  0  0  0  0  0  0
    9.8098   44.9950   32.1511 H   0  0  0  0  0  0  0  0  0  0  0  0
   11.9217   45.7023   32.9825 H   0  0  0  0  0  0  0  0  0  0  0  0
   11.2753   46.1184   34.4981 H   0  0  0  0  0  0  0  0  0  0  0  0
    8.7954   45.7894   34.9689 H   0  0  0  0  0  0  0  0  0  0  0  0
    7.8365   44.9327   33.7143 H   0  0  0  0  0  0  0  0  0  0  0  0
    8.0945   48.8024   31.1780 H   0  0  0  0  0  0  0  0  0  0  0  0
    6.8601   47.8617   30.3157 H   0  0  0  0  0  0  0  0  0  0  0  0
    4.9121   46.9918   32.1146 H   0  0  0  0  0  0  0  0  0  0  0  0
    4.9079   51.8335   33.1791 H   0  0  0  0  0  0  0  0  0  0  0  0
    2.9475   48.0272   33.1734 H   0  0  0  0  0  0  0  0  0  0  0  0
    2.9387   50.4465   33.6931 H   0  0  0  0  0  0  0  0  0  0  0  0
   11.4014   41.5436   31.4731 H   0  0  0  0  0  0  0  0  0  0  0  0
    9.8316   40.7398   31.7544 H   0  0  0  0  0  0  0  0  0  0  0  0
   11.6982   39.5042   30.3470 H   0  0  0  0  0  0  0  0  0  0  0  0
   10.1090   38.2631   32.6649 H   0  0  0  0  0  0  0  0  0  0  0  0
   13.6656   37.4540   31.2207 H   0  0  0  0  0  0  0  0  0  0  0  0
    8.8965   38.6899   30.8852 H   0  0  0  0  0  0  0  0  0  0  0  0
   11.2846   36.3060   32.5175 H   0  0  0  0  0  0  0  0  0  0  0  0
   10.8524   35.7094   30.4590 H   0  0  0  0  0  0  0  0  0  0  0  0
   12.3353   38.3588   34.7439 H   0  0  0  0  0  0  0  0  0  0  0  0
   16.7570   34.1788   32.4619 H   0  0  0  0  0  0  0  0  0  0  0  0
   16.6360   34.5317   37.1414 H   0  0  0  0  0  0  0  0  0  0  0  0
   15.3529   35.7359   37.5136 H   0  0  0  0  0  0  0  0  0  0  0  0
  1  2  2  0
  1  3  1  0
  3  4  1  0
  4  5  1  0
  6  1  1  0
  7  6  1  0
  6  8  1  0
  8  9  1  0
  9 10  1  0
  9 11  2  0
 10 12  1  0
 12 13  1  0
 13 14  2  0
 15 13  1  0
 14 16  1  0
 14 17  1  0
 18 15  2  0
 16 19  1  0
 16 20  2  0
 17 21  2  0
 21 18  1  0
  4 22  2  0
  4 23  1  0
 24 23  1  0
 24 25  1  0
 25 26  1  0
 25 27  1  0
 26 28  1  0
 27 29  1  0
 27 30  1  0
 30 28  1  0
 28 31  1  0
 30 32  1  0
 33 31  1  0
 34 31  1  0
 35 33  2  0
 33 36  1  0
 37 34  2  0
 38 35  1  0
 36 39  2  0
 36 37  1  0
 40 38  2  0
 40 39  1  0
 39 41  1  0
  6 42  1  6
  7 43  1  0
  7 44  1  0
  8 45  1  0
  8 46  1  0
 12 47  1  0
 12 48  1  0
 15 49  1  0
 17 50  1  0
 18 51  1  0
 21 52  1  0
 24 53  1  0
 24 54  1  0
 25 55  1  0
 27 56  1  0
 28 57  1  0
 29 58  1  0
 30 59  1  0
 32 60  1  0
 34 61  1  0
 38 62  1  0
 41 63  1  0
 41 64  1  0
M  CHG  3   5  -1  16   1  19  -1
M  END
>  <EmbedRMS>  (510) 
0.08996558561385039

$$$$

     RDKit          3D

 64 67  0  0  0  0  0  0  0  0999 V2000
   10.2842   43.7744   33.8077 C   0  0  0  0  0  0  0  0  0  0  0  0
   11.4068   43.5905   34.3640 O   0  0  0  0  0  0  0  0  0  0  0  0
    9.3677   42.7313   33.6996 O   0  0  0  0  0  0  0  0  0  0  0  0
    9.8856   41.2344   34.2841 P   0  0  0  0  0  5  0  0  0  0  0  0
   10.3660   41.4697   35.8746 O   0  0  0  0  0  1  0  0  0  0  0  0
    9.9503   45.1152   33.2525 C   0  0  2  0  0  0  0  0  0  0  0  0
   11.0748   46.0281   33.4738 N   0  0  0  0  0  0  0  0  0  0  0  0
    8.6752   45.6540   33.9315 C   0  0  0  0  0  0  0  0  0  0  0  0
    8.1783   46.8957   33.2576 C   0  0  0  0  0  0  0  0  0  0  0  0
    7.7105   46.8192   31.9435 O   0  0  0  0  0  0  0  0  0  0  0  0
    8.2054   47.9986   33.8691 O   0  0  0  0  0  0  0  0  0  0  0  0
    7.2971   47.9629   31.2033 C   0  0  0  0  0  0  0  0  0  0  0  0
    6.9666   47.5590   29.7883 C   0  0  0  0  0  0  0  0  0  0  0  0
    7.8833   46.8381   28.9756 C   0  0  0  0  0  0  0  0  0  0  0  0
    5.6974   47.8806   29.2723 C   0  0  0  0  0  0  0  0  0  0  0  0
    9.2039   46.4979   29.4371 N   0  0  0  0  0  4  0  0  0  0  0  0
    7.4846   46.4329   27.6884 C   0  0  0  0  0  0  0  0  0  0  0  0
    5.3291   47.4826   27.9866 C   0  0  0  0  0  0  0  0  0  0  0  0
    9.9502   47.4002   30.1585 O   0  0  0  0  0  1  0  0  0  0  0  0
    9.7481   45.4421   29.0525 O   0  0  0  0  0  0  0  0  0  0  0  0
    6.2187   46.7559   27.1983 C   0  0  0  0  0  0  0  0  0  0  0  0
    8.8082   40.1914   34.2083 O   0  0  0  0  0  0  0  0  0  0  0  0
   11.2373   40.7907   33.3685 O   0  0  0  0  0  0  0  0  0  0  0  0
   10.9156   40.6899   31.9956 C   0  0  0  0  0  0  0  0  0  0  0  0
   11.5270   39.3898   31.4372 C   0  0  0  0  0  0  0  0  0  0  0  0
   12.7508   39.0916   32.0838 O   0  0  0  0  0  0  0  0  0  0  0  0
   10.6122   38.1916   31.6451 C   0  0  0  0  0  0  0  0  0  0  0  0
   12.9429   37.6852   32.0295 C   0  0  0  0  0  0  0  0  0  0  0  0
    9.6069   38.0858   30.6602 O   0  0  0  0  0  0  0  0  0  0  0  0
   11.5845   37.0186   31.6879 C   0  0  0  0  0  0  0  0  0  0  0  0
   13.4899   37.2163   33.3250 N   0  0  0  0  0  0  0  0  0  0  0  0
   11.6201   36.3062   30.4693 O   0  0  0  0  0  0  0  0  0  0  0  0
   14.4759   36.3263   33.5738 C   0  0  0  0  0  0  0  0  0  0  0  0
   13.1176   37.6307   34.5699 C   0  0  0  0  0  0  0  0  0  0  0  0
   15.2065   35.6139   32.6746 N   0  0  0  0  0  0  0  0  0  0  0  0
   14.6731   36.2267   34.9190 C   0  0  0  0  0  0  0  0  0  0  0  0
   13.8224   37.0450   35.5792 N   0  0  0  0  0  0  0  0  0  0  0  0
   16.1640   34.7596   33.1551 C   0  0  0  0  0  0  0  0  0  0  0  0
   15.6517   35.3489   35.4136 C   0  0  0  0  0  0  0  0  0  0  0  0
   16.3795   34.6310   34.5046 N   0  0  0  0  0  0  0  0  0  0  0  0
   15.9006   35.1931   36.8094 N   0  0  0  0  0  0  0  0  0  0  0  0
    9.7717   44.9993   32.1592 H   0  0  0  0  0  0  0  0  0  0  0  0
   10.8403   46.9589   33.0595 H   0  0  0  0  0  0  0  0  0  0  0  0
   11.8930   45.6838   32.9190 H   0  0  0  0  0  0  0  0  0  0  0  0
    7.8644   44.8956   33.8751 H   0  0  0  0  0  0  0  0  0  0  0  0
    8.8761   45.8570   35.0070 H   0  0  0  0  0  0  0  0  0  0  0  0
    6.4153   48.4152   31.7079 H   0  0  0  0  0  0  0  0  0  0  0  0
    8.1016   48.7283   31.1912 H   0  0  0  0  0  0  0  0  0  0  0  0
    4.9831   48.4338   29.8698 H   0  0  0  0  0  0  0  0  0  0  0  0
    8.1647   45.8782   27.0543 H   0  0  0  0  0  0  0  0  0  0  0  0
    4.3484   47.7334   27.6031 H   0  0  0  0  0  0  0  0  0  0  0  0
    5.9287   46.4450   26.2029 H   0  0  0  0  0  0  0  0  0  0  0  0
    9.8255   40.7192   31.7585 H   0  0  0  0  0  0  0  0  0  0  0  0
   11.3825   41.5527   31.4740 H   0  0  0  0  0  0  0  0  0  0  0  0
   11.7319   39.5337   30.3518 H   0  0  0  0  0  0  0  0  0  0  0  0
   10.1215   38.2684   32.6412 H   0  0  0  0  0  0  0  0  0  0  0  0
   13.6882   37.4707   31.2319 H   0  0  0  0  0  0  0  0  0  0  0  0
   10.0256   38.1752   29.7656 H   0  0  0  0  0  0  0  0  0  0  0  0
   11.2795   36.3124   32.4915 H   0  0  0  0  0  0  0  0  0  0  0  0
   11.9871   36.9099   29.7714 H   0  0  0  0  0  0  0  0  0  0  0  0
   12.3365   38.3596   34.7453 H   0  0  0  0  0  0  0  0  0  0  0  0
   16.7577   34.1794   32.4622 H   0  0  0  0  0  0  0  0  0  0  0  0
   16.6368   34.5316   37.1418 H   0  0  0  0  0  0  0  0  0  0  0  0
   15.3532   35.7351   37.5143 H   0  0  0  0  0  0  0  0  0  0  0  0
  1  2  2  0
  1  3  1  0
  3  4  1  0
  4  5  1  0
  6  1  1  0
  7  6  1  0
  6  8  1  0
  8  9  1  0
  9 10  1  0
  9 11  2  0
 10 12  1  0
 12 13  1  0
 13 14  2  0
 15 13  1  0
 14 16  1  0
 14 17  1  0
 18 15  2  0
 16 19  1  0
 16 20  2  0
 17 21  2  0
 21 18  1  0
  4 22  2  0
  4 23  1  0
 24 23  1  0
 24 25  1  0
 25 26  1  0
 25 27  1  0
 26 28  1  0
 27 29  1  0
 27 30  1  0
 30 28  1  0
 28 31  1  0
 30 32  1  0
 33 31  1  0
 34 31  1  0
 35 33  2  0
 33 36  1  0
 37 34  2  0
 38 35  1  0
 36 39  2  0
 36 37  1  0
 40 38  2  0
 40 39  1  0
 39 41  1  0
  6 42  1  6
  7 43  1  0
  7 44  1  0
  8 45  1  0
  8 46  1  0
 12 47  1  0
 12 48  1  0
 15 49  1  0
 17 50  1  0
 18 51  1  0
 21 52  1  0
 24 53  1  0
 24 54  1  0
 25 55  1  0
 27 56  1  0
 28 57  1  0
 29 58  1  0
 30 59  1  0
 32 60  1  0
 34 61  1  0
 38 62  1  0
 41 63  1  0
 41 64  1  0
M  CHG  3   5  -1  16   1  19  -1
M  END
>  <EmbedRMS>  (511) 
0.08700682970586442

$$$$

     RDKit          3D

 64 67  0  0  0  0  0  0  0  0999 V2000
   10.2815   43.7756   33.8097 C   0  0  0  0  0  0  0  0  0  0  0  0
   11.4045   43.5923   34.3657 O   0  0  0  0  0  0  0  0  0  0  0  0
    9.3715   42.7281   33.6943 O   0  0  0  0  0  0  0  0  0  0  0  0
    9.8874   41.2328   34.2822 P   0  0  0  0  0  5  0  0  0  0  0  0
   10.3670   41.4698   35.8729 O   0  0  0  0  0  1  0  0  0  0  0  0
    9.9444   45.1232   33.2621 C   0  0  2  0  0  0  0  0  0  0  0  0
   11.0797   46.0245   33.4664 N   0  0  0  0  0  0  0  0  0  0  0  0
    8.6952   45.7067   33.9567 C   0  0  0  0  0  0  0  0  0  0  0  0
    7.4522   44.9425   33.6166 C   0  0  0  0  0  0  0  0  0  0  0  0
    6.9346   44.0302   34.5398 O   0  0  0  0  0  0  0  0  0  0  0  0
    6.9086   45.0968   32.4888 O   0  0  0  0  0  0  0  0  0  0  0  0
    5.8513   43.1558   34.2358 C   0  0  0  0  0  0  0  0  0  0  0  0
    5.5683   42.2157   35.3862 C   0  0  0  0  0  0  0  0  0  0  0  0
    4.2942   41.6086   35.5461 C   0  0  0  0  0  0  0  0  0  0  0  0
    6.5925   41.9046   36.3037 C   0  0  0  0  0  0  0  0  0  0  0  0
    3.2341   41.8151   34.5953 N   0  0  0  0  0  4  0  0  0  0  0  0
    4.0642   40.7746   36.6557 C   0  0  0  0  0  0  0  0  0  0  0  0
    6.3486   41.0587   37.3859 C   0  0  0  0  0  0  0  0  0  0  0  0
    3.4993   41.8208   33.2453 O   0  0  0  0  0  1  0  0  0  0  0  0
    2.0442   41.8085   34.9732 O   0  0  0  0  0  0  0  0  0  0  0  0
    5.0844   40.5032   37.5676 C   0  0  0  0  0  0  0  0  0  0  0  0
    8.8081   40.1916   34.2076 O   0  0  0  0  0  0  0  0  0  0  0  0
   11.2382   40.7885   33.3657 O   0  0  0  0  0  0  0  0  0  0  0  0
   10.9144   40.6838   31.9930 C   0  0  0  0  0  0  0  0  0  0  0  0
   11.5177   39.3770   31.4390 C   0  0  0  0  0  0  0  0  0  0  0  0
   12.7480   39.0866   32.0751 O   0  0  0  0  0  0  0  0  0  0  0  0
   10.6069   38.1851   31.6656 C   0  0  0  0  0  0  0  0  0  0  0  0
   12.9372   37.6808   32.0289 C   0  0  0  0  0  0  0  0  0  0  0  0
    9.6403   38.0882   30.6476 O   0  0  0  0  0  0  0  0  0  0  0  0
   11.5788   37.0133   31.7045 C   0  0  0  0  0  0  0  0  0  0  0  0
   13.4915   37.2181   33.3239 N   0  0  0  0  0  0  0  0  0  0  0  0
   11.6123   36.3387   30.4673 O   0  0  0  0  0  0  0  0  0  0  0  0
   14.4766   36.3272   33.5730 C   0  0  0  0  0  0  0  0  0  0  0  0
   13.1184   37.6317   34.5689 C   0  0  0  0  0  0  0  0  0  0  0  0
   15.2066   35.6139   32.6741 N   0  0  0  0  0  0  0  0  0  0  0  0
   14.6735   36.2274   34.9184 C   0  0  0  0  0  0  0  0  0  0  0  0
   13.8227   37.0456   35.5785 N   0  0  0  0  0  0  0  0  0  0  0  0
   16.1638   34.7593   33.1548 C   0  0  0  0  0  0  0  0  0  0  0  0
   15.6516   35.3491   35.4132 C   0  0  0  0  0  0  0  0  0  0  0  0
   16.3792   34.6308   34.5043 N   0  0  0  0  0  0  0  0  0  0  0  0
   15.9003   35.1933   36.8091 N   0  0  0  0  0  0  0  0  0  0  0  0
    9.7486   45.0256   32.1699 H   0  0  0  0  0  0  0  0  0  0  0  0
   11.8820   45.6818   32.8879 H   0  0  0  0  0  0  0  0  0  0  0  0
   10.8366   46.9617   33.0701 H   0  0  0  0  0  0  0  0  0  0  0  0
    8.5478   46.7616   33.6380 H   0  0  0  0  0  0  0  0  0  0  0  0
    8.8409   45.7101   35.0594 H   0  0  0  0  0  0  0  0  0  0  0  0
    6.1060   42.5522   33.3378 H   0  0  0  0  0  0  0  0  0  0  0  0
    4.9547   43.7765   34.0222 H   0  0  0  0  0  0  0  0  0  0  0  0
    7.5843   42.3227   36.1931 H   0  0  0  0  0  0  0  0  0  0  0  0
    3.0967   40.3106   36.8005 H   0  0  0  0  0  0  0  0  0  0  0  0
    7.1424   40.8361   38.0875 H   0  0  0  0  0  0  0  0  0  0  0  0
    4.8973   39.8498   38.4101 H   0  0  0  0  0  0  0  0  0  0  0  0
   11.3863   41.5411   31.4670 H   0  0  0  0  0  0  0  0  0  0  0  0
    9.8242   40.7188   31.7568 H   0  0  0  0  0  0  0  0  0  0  0  0
   11.7007   39.5015   30.3466 H   0  0  0  0  0  0  0  0  0  0  0  0
   10.1099   38.2753   32.6606 H   0  0  0  0  0  0  0  0  0  0  0  0
   13.6713   37.4585   31.2226 H   0  0  0  0  0  0  0  0  0  0  0  0
    9.0026   37.3843   30.9358 H   0  0  0  0  0  0  0  0  0  0  0  0
   11.2704   36.3048   32.5088 H   0  0  0  0  0  0  0  0  0  0  0  0
   12.1439   35.5133   30.6141 H   0  0  0  0  0  0  0  0  0  0  0  0
   12.3361   38.3592   34.7444 H   0  0  0  0  0  0  0  0  0  0  0  0
   16.7571   34.1787   32.4621 H   0  0  0  0  0  0  0  0  0  0  0  0
   16.6362   34.5314   37.1416 H   0  0  0  0  0  0  0  0  0  0  0  0
   15.3531   35.7356   37.5139 H   0  0  0  0  0  0  0  0  0  0  0  0
  1  2  2  0
  1  3  1  0
  3  4  1  0
  4  5  1  0
  6  1  1  0
  7  6  1  0
  6  8  1  0
  8  9  1  0
  9 10  1  0
  9 11  2  0
 10 12  1  0
 12 13  1  0
 13 14  2  0
 15 13  1  0
 14 16  1  0
 14 17  1  0
 18 15  2  0
 16 19  1  0
 16 20  2  0
 17 21  2  0
 21 18  1  0
  4 22  2  0
  4 23  1  0
 24 23  1  0
 24 25  1  0
 25 26  1  0
 25 27  1  0
 26 28  1  0
 27 29  1  0
 27 30  1  0
 30 28  1  0
 28 31  1  0
 30 32  1  0
 33 31  1  0
 34 31  1  0
 35 33  2  0
 33 36  1  0
 37 34  2  0
 38 35  1  0
 36 39  2  0
 36 37  1  0
 40 38  2  0
 40 39  1  0
 39 41  1  0
  6 42  1  6
  7 43  1  0
  7 44  1  0
  8 45  1  0
  8 46  1  0
 12 47  1  0
 12 48  1  0
 15 49  1  0
 17 50  1  0
 18 51  1  0
 21 52  1  0
 24 53  1  0
 24 54  1  0
 25 55  1  0
 27 56  1  0
 28 57  1  0
 29 58  1  0
 30 59  1  0
 32 60  1  0
 34 61  1  0
 38 62  1  0
 41 63  1  0
 41 64  1  0
M  CHG  3   5  -1  16   1  19  -1
M  END
>  <EmbedRMS>  (512) 
0.08946100728288281

$$$$

     RDKit          3D

 64 67  0  0  0  0  0  0  0  0999 V2000
   10.2863   43.7716   33.8040 C   0  0  0  0  0  0  0  0  0  0  0  0
   11.4115   43.5869   34.3545 O   0  0  0  0  0  0  0  0  0  0  0  0
    9.3674   42.7307   33.6996 O   0  0  0  0  0  0  0  0  0  0  0  0
    9.8855   41.2341   34.2843 P   0  0  0  0  0  5  0  0  0  0  0  0
   10.3651   41.4707   35.8750 O   0  0  0  0  0  1  0  0  0  0  0  0
    9.9565   45.1116   33.2470 C   0  0  2  0  0  0  0  0  0  0  0  0
   11.0671   46.0363   33.4857 N   0  0  0  0  0  0  0  0  0  0  0  0
    8.6227   45.6575   33.8057 C   0  0  0  0  0  0  0  0  0  0  0  0
    8.6155   45.7655   35.3022 C   0  0  0  0  0  0  0  0  0  0  0  0
    8.3939   44.6181   36.0727 O   0  0  0  0  0  0  0  0  0  0  0  0
    8.8335   46.8794   35.8528 O   0  0  0  0  0  0  0  0  0  0  0  0
    8.3931   44.6222   37.4997 C   0  0  0  0  0  0  0  0  0  0  0  0
    7.1695   45.3202   38.0558 C   0  0  0  0  0  0  0  0  0  0  0  0
    7.2061   46.0228   39.2900 C   0  0  0  0  0  0  0  0  0  0  0  0
    5.9546   45.2495   37.3462 C   0  0  0  0  0  0  0  0  0  0  0  0
    8.3804   46.0406   40.1192 N   0  0  0  0  0  4  0  0  0  0  0  0
    6.0585   46.7085   39.7246 C   0  0  0  0  0  0  0  0  0  0  0  0
    4.8206   45.9205   37.8056 C   0  0  0  0  0  0  0  0  0  0  0  0
    8.6586   47.1456   40.8905 O   0  0  0  0  0  1  0  0  0  0  0  0
    9.0333   44.9941   40.3109 O   0  0  0  0  0  0  0  0  0  0  0  0
    4.8759   46.6590   38.9857 C   0  0  0  0  0  0  0  0  0  0  0  0
    8.8080   40.1913   34.2084 O   0  0  0  0  0  0  0  0  0  0  0  0
   11.2383   40.7898   33.3693 O   0  0  0  0  0  0  0  0  0  0  0  0
   10.9194   40.6894   31.9954 C   0  0  0  0  0  0  0  0  0  0  0  0
   11.5171   39.3802   31.4399 C   0  0  0  0  0  0  0  0  0  0  0  0
   12.7479   39.0861   32.0734 O   0  0  0  0  0  0  0  0  0  0  0  0
   10.6031   38.1891   31.6667 C   0  0  0  0  0  0  0  0  0  0  0  0
   12.9335   37.6796   32.0280 C   0  0  0  0  0  0  0  0  0  0  0  0
    9.6397   38.0777   30.6457 O   0  0  0  0  0  0  0  0  0  0  0  0
   11.5739   37.0154   31.7057 C   0  0  0  0  0  0  0  0  0  0  0  0
   13.4903   37.2178   33.3231 N   0  0  0  0  0  0  0  0  0  0  0  0
   11.6211   36.3376   30.4695 O   0  0  0  0  0  0  0  0  0  0  0  0
   14.4761   36.3273   33.5725 C   0  0  0  0  0  0  0  0  0  0  0  0
   13.1178   37.6316   34.5684 C   0  0  0  0  0  0  0  0  0  0  0  0
   15.2063   35.6139   32.6737 N   0  0  0  0  0  0  0  0  0  0  0  0
   14.6733   36.2277   34.9180 C   0  0  0  0  0  0  0  0  0  0  0  0
   13.8225   37.0459   35.5779 N   0  0  0  0  0  0  0  0  0  0  0  0
   16.1636   34.7594   33.1546 C   0  0  0  0  0  0  0  0  0  0  0  0
   15.6515   35.3494   35.4129 C   0  0  0  0  0  0  0  0  0  0  0  0
   16.3791   34.6311   34.5041 N   0  0  0  0  0  0  0  0  0  0  0  0
   15.9001   35.1935   36.8088 N   0  0  0  0  0  0  0  0  0  0  0  0
    9.8397   44.9890   32.1478 H   0  0  0  0  0  0  0  0  0  0  0  0
   11.1532   46.2387   34.5084 H   0  0  0  0  0  0  0  0  0  0  0  0
   10.8572   46.9419   33.0061 H   0  0  0  0  0  0  0  0  0  0  0  0
    8.4161   46.6547   33.3595 H   0  0  0  0  0  0  0  0  0  0  0  0
    7.7917   44.9877   33.4952 H   0  0  0  0  0  0  0  0  0  0  0  0
    8.3940   43.5715   37.8572 H   0  0  0  0  0  0  0  0  0  0  0  0
    9.3299   45.1078   37.8461 H   0  0  0  0  0  0  0  0  0  0  0  0
    5.8850   44.6850   36.4247 H   0  0  0  0  0  0  0  0  0  0  0  0
    6.0709   47.2606   40.6559 H   0  0  0  0  0  0  0  0  0  0  0  0
    3.8975   45.8702   37.2428 H   0  0  0  0  0  0  0  0  0  0  0  0
    3.9957   47.1812   39.3381 H   0  0  0  0  0  0  0  0  0  0  0  0
    9.8316   40.7397   31.7552 H   0  0  0  0  0  0  0  0  0  0  0  0
   11.4012   41.5438   31.4737 H   0  0  0  0  0  0  0  0  0  0  0  0
   11.6981   39.5045   30.3473 H   0  0  0  0  0  0  0  0  0  0  0  0
   10.1089   38.2631   32.6650 H   0  0  0  0  0  0  0  0  0  0  0  0
   13.6655   37.4541   31.2207 H   0  0  0  0  0  0  0  0  0  0  0  0
    8.8966   38.6901   30.8852 H   0  0  0  0  0  0  0  0  0  0  0  0
   11.2846   36.3060   32.5175 H   0  0  0  0  0  0  0  0  0  0  0  0
   10.8523   35.7095   30.4590 H   0  0  0  0  0  0  0  0  0  0  0  0
   12.3353   38.3588   34.7440 H   0  0  0  0  0  0  0  0  0  0  0  0
   16.7570   34.1788   32.4619 H   0  0  0  0  0  0  0  0  0  0  0  0
   15.3529   35.7359   37.5136 H   0  0  0  0  0  0  0  0  0  0  0  0
   16.6360   34.5317   37.1413 H   0  0  0  0  0  0  0  0  0  0  0  0
  1  2  2  0
  1  3  1  0
  3  4  1  0
  4  5  1  0
  6  1  1  0
  7  6  1  0
  6  8  1  0
  8  9  1  0
  9 10  1  0
  9 11  2  0
 10 12  1  0
 12 13  1  0
 13 14  2  0
 15 13  1  0
 14 16  1  0
 14 17  1  0
 18 15  2  0
 16 19  1  0
 16 20  2  0
 17 21  2  0
 21 18  1  0
  4 22  2  0
  4 23  1  0
 24 23  1  0
 24 25  1  0
 25 26  1  0
 25 27  1  0
 26 28  1  0
 27 29  1  0
 27 30  1  0
 30 28  1  0
 28 31  1  0
 30 32  1  0
 33 31  1  0
 34 31  1  0
 35 33  2  0
 33 36  1  0
 37 34  2  0
 38 35  1  0
 36 39  2  0
 36 37  1  0
 40 38  2  0
 40 39  1  0
 39 41  1  0
  6 42  1  6
  7 43  1  0
  7 44  1  0
  8 45  1  0
  8 46  1  0
 12 47  1  0
 12 48  1  0
 15 49  1  0
 17 50  1  0
 18 51  1  0
 21 52  1  0
 24 53  1  0
 24 54  1  0
 25 55  1  0
 27 56  1  0
 28 57  1  0
 29 58  1  0
 30 59  1  0
 32 60  1  0
 34 61  1  0
 38 62  1  0
 41 63  1  0
 41 64  1  0
M  CHG  3   5  -1  16   1  19  -1
M  END
>  <EmbedRMS>  (513) 
0.0893274388462074

$$$$

     RDKit          3D

 64 67  0  0  0  0  0  0  0  0999 V2000
   10.2779   43.7761   33.8187 C   0  0  0  0  0  0  0  0  0  0  0  0
   11.4040   43.5894   34.3668 O   0  0  0  0  0  0  0  0  0  0  0  0
    9.3616   42.7335   33.7096 O   0  0  0  0  0  0  0  0  0  0  0  0
    9.8855   41.2341   34.2838 P   0  0  0  0  0  5  0  0  0  0  0  0
   10.3739   41.4632   35.8722 O   0  0  0  0  0  1  0  0  0  0  0  0
    9.9723   45.1027   33.2188 C   0  0  2  0  0  0  0  0  0  0  0  0
   11.0657   46.0395   33.4883 N   0  0  0  0  0  0  0  0  0  0  0  0
    8.5950   45.6572   33.6522 C   0  0  0  0  0  0  0  0  0  0  0  0
    8.4469   45.8813   35.1299 C   0  0  0  0  0  0  0  0  0  0  0  0
    7.5499   45.0947   35.8597 O   0  0  0  0  0  0  0  0  0  0  0  0
    9.0721   46.8226   35.6904 O   0  0  0  0  0  0  0  0  0  0  0  0
    7.2149   45.3769   37.2161 C   0  0  0  0  0  0  0  0  0  0  0  0
    6.0845   44.4812   37.6628 C   0  0  0  0  0  0  0  0  0  0  0  0
    6.1983   43.0631   37.6867 C   0  0  0  0  0  0  0  0  0  0  0  0
    4.8568   45.0754   38.0134 C   0  0  0  0  0  0  0  0  0  0  0  0
    7.4209   42.3845   37.3450 N   0  0  0  0  0  4  0  0  0  0  0  0
    5.0751   42.2933   38.0410 C   0  0  0  0  0  0  0  0  0  0  0  0
    3.7612   44.2916   38.3754 C   0  0  0  0  0  0  0  0  0  0  0  0
    7.3760   41.1034   36.8450 O   0  0  0  0  0  1  0  0  0  0  0  0
    8.5280   42.8621   37.6647 O   0  0  0  0  0  0  0  0  0  0  0  0
    3.8690   42.9034   38.3860 C   0  0  0  0  0  0  0  0  0  0  0  0
    8.8094   40.1899   34.2079 O   0  0  0  0  0  0  0  0  0  0  0  0
   11.2370   40.7938   33.3654 O   0  0  0  0  0  0  0  0  0  0  0  0
   10.9143   40.6894   31.9932 C   0  0  0  0  0  0  0  0  0  0  0  0
   11.5246   39.3873   31.4362 C   0  0  0  0  0  0  0  0  0  0  0  0
   12.7479   39.0883   32.0807 O   0  0  0  0  0  0  0  0  0  0  0  0
   10.6098   38.1909   31.6470 C   0  0  0  0  0  0  0  0  0  0  0  0
   12.9346   37.6812   32.0294 C   0  0  0  0  0  0  0  0  0  0  0  0
    9.6124   38.0872   30.6547 O   0  0  0  0  0  0  0  0  0  0  0  0
   11.5766   37.0134   31.7026 C   0  0  0  0  0  0  0  0  0  0  0  0
   13.4901   37.2167   33.3237 N   0  0  0  0  0  0  0  0  0  0  0  0
   11.6323   36.3231   30.4742 O   0  0  0  0  0  0  0  0  0  0  0  0
   14.4762   36.3267   33.5727 C   0  0  0  0  0  0  0  0  0  0  0  0
   13.1179   37.6308   34.5690 C   0  0  0  0  0  0  0  0  0  0  0  0
   15.2065   35.6136   32.6738 N   0  0  0  0  0  0  0  0  0  0  0  0
   14.6735   36.2272   34.9182 C   0  0  0  0  0  0  0  0  0  0  0  0
   13.8228   37.0453   35.5784 N   0  0  0  0  0  0  0  0  0  0  0  0
   16.1639   34.7593   33.1546 C   0  0  0  0  0  0  0  0  0  0  0  0
   15.6518   35.3491   35.4130 C   0  0  0  0  0  0  0  0  0  0  0  0
   16.3794   34.6309   34.5041 N   0  0  0  0  0  0  0  0  0  0  0  0
   15.9004   35.1933   36.8089 N   0  0  0  0  0  0  0  0  0  0  0  0
    9.9292   44.9477   32.1184 H   0  0  0  0  0  0  0  0  0  0  0  0
   11.1680   46.1952   34.5167 H   0  0  0  0  0  0  0  0  0  0  0  0
   10.8401   46.9611   33.0481 H   0  0  0  0  0  0  0  0  0  0  0  0
    8.4083   46.6195   33.1286 H   0  0  0  0  0  0  0  0  0  0  0  0
    7.8010   44.9559   33.3145 H   0  0  0  0  0  0  0  0  0  0  0  0
    6.9195   46.4465   37.2983 H   0  0  0  0  0  0  0  0  0  0  0  0
    8.1005   45.2435   37.8708 H   0  0  0  0  0  0  0  0  0  0  0  0
    4.7402   46.1521   37.9985 H   0  0  0  0  0  0  0  0  0  0  0  0
    5.1366   41.2127   38.0655 H   0  0  0  0  0  0  0  0  0  0  0  0
    2.8237   44.7625   38.6418 H   0  0  0  0  0  0  0  0  0  0  0  0
    3.0162   42.2974   38.6635 H   0  0  0  0  0  0  0  0  0  0  0  0
   11.3811   41.5507   31.4692 H   0  0  0  0  0  0  0  0  0  0  0  0
    9.8239   40.7195   31.7574 H   0  0  0  0  0  0  0  0  0  0  0  0
   11.7273   39.5279   30.3499 H   0  0  0  0  0  0  0  0  0  0  0  0
   10.1120   38.2732   32.6390 H   0  0  0  0  0  0  0  0  0  0  0  0
   13.6684   37.4599   31.2225 H   0  0  0  0  0  0  0  0  0  0  0  0
   10.0511   38.1105   29.7647 H   0  0  0  0  0  0  0  0  0  0  0  0
   11.2801   36.3129   32.5196 H   0  0  0  0  0  0  0  0  0  0  0  0
   10.8627   35.6960   30.4646 H   0  0  0  0  0  0  0  0  0  0  0  0
   12.3356   38.3582   34.7446 H   0  0  0  0  0  0  0  0  0  0  0  0
   16.7574   34.1788   32.4619 H   0  0  0  0  0  0  0  0  0  0  0  0
   15.3531   35.7355   37.5137 H   0  0  0  0  0  0  0  0  0  0  0  0
   16.6364   34.5315   37.1414 H   0  0  0  0  0  0  0  0  0  0  0  0
  1  2  2  0
  1  3  1  0
  3  4  1  0
  4  5  1  0
  6  1  1  0
  7  6  1  0
  6  8  1  0
  8  9  1  0
  9 10  1  0
  9 11  2  0
 10 12  1  0
 12 13  1  0
 13 14  2  0
 15 13  1  0
 14 16  1  0
 14 17  1  0
 18 15  2  0
 16 19  1  0
 16 20  2  0
 17 21  2  0
 21 18  1  0
  4 22  2  0
  4 23  1  0
 24 23  1  0
 24 25  1  0
 25 26  1  0
 25 27  1  0
 26 28  1  0
 27 29  1  0
 27 30  1  0
 30 28  1  0
 28 31  1  0
 30 32  1  0
 33 31  1  0
 34 31  1  0
 35 33  2  0
 33 36  1  0
 37 34  2  0
 38 35  1  0
 36 39  2  0
 36 37  1  0
 40 38  2  0
 40 39  1  0
 39 41  1  0
  6 42  1  6
  7 43  1  0
  7 44  1  0
  8 45  1  0
  8 46  1  0
 12 47  1  0
 12 48  1  0
 15 49  1  0
 17 50  1  0
 18 51  1  0
 21 52  1  0
 24 53  1  0
 24 54  1  0
 25 55  1  0
 27 56  1  0
 28 57  1  0
 29 58  1  0
 30 59  1  0
 32 60  1  0
 34 61  1  0
 38 62  1  0
 41 63  1  0
 41 64  1  0
M  CHG  3   5  -1  16   1  19  -1
M  END
>  <EmbedRMS>  (514) 
0.08795266690169358

$$$$

     RDKit          3D

 64 67  0  0  0  0  0  0  0  0999 V2000
   10.2863   43.7710   33.8101 C   0  0  0  0  0  0  0  0  0  0  0  0
   11.4101   43.5817   34.3618 O   0  0  0  0  0  0  0  0  0  0  0  0
    9.3669   42.7308   33.7021 O   0  0  0  0  0  0  0  0  0  0  0  0
    9.8847   41.2330   34.2845 P   0  0  0  0  0  5  0  0  0  0  0  0
   10.3648   41.4677   35.8752 O   0  0  0  0  0  1  0  0  0  0  0  0
    9.9611   45.1121   33.2467 C   0  0  2  0  0  0  0  0  0  0  0  0
   11.0651   46.0482   33.4749 N   0  0  0  0  0  0  0  0  0  0  0  0
    8.6648   45.6568   33.8690 C   0  0  0  0  0  0  0  0  0  0  0  0
    8.2711   46.9567   33.2392 C   0  0  0  0  0  0  0  0  0  0  0  0
    7.6869   46.9537   31.9698 O   0  0  0  0  0  0  0  0  0  0  0  0
    8.4979   48.0415   33.8416 O   0  0  0  0  0  0  0  0  0  0  0  0
    7.3060   48.1495   31.2938 C   0  0  0  0  0  0  0  0  0  0  0  0
    6.6929   47.8399   29.9462 C   0  0  0  0  0  0  0  0  0  0  0  0
    6.7406   48.7749   28.8766 C   0  0  0  0  0  0  0  0  0  0  0  0
    6.0315   46.6110   29.7488 C   0  0  0  0  0  0  0  0  0  0  0  0
    7.3091   50.0865   29.0377 N   0  0  0  0  0  4  0  0  0  0  0  0
    6.2083   48.4160   27.6257 C   0  0  0  0  0  0  0  0  0  0  0  0
    5.4921   46.2832   28.5043 C   0  0  0  0  0  0  0  0  0  0  0  0
    7.9088   50.7109   27.9682 O   0  0  0  0  0  1  0  0  0  0  0  0
    7.0943   50.7467   30.0751 O   0  0  0  0  0  0  0  0  0  0  0  0
    5.5909   47.1786   27.4418 C   0  0  0  0  0  0  0  0  0  0  0  0
    8.8073   40.1902   34.2075 O   0  0  0  0  0  0  0  0  0  0  0  0
   11.2377   40.7903   33.3696 O   0  0  0  0  0  0  0  0  0  0  0  0
   10.9186   40.6905   31.9961 C   0  0  0  0  0  0  0  0  0  0  0  0
   11.5174   39.3824   31.4411 C   0  0  0  0  0  0  0  0  0  0  0  0
   12.7494   39.0893   32.0756 O   0  0  0  0  0  0  0  0  0  0  0  0
   10.6036   38.1899   31.6659 C   0  0  0  0  0  0  0  0  0  0  0  0
   12.9401   37.6834   32.0276 C   0  0  0  0  0  0  0  0  0  0  0  0
    9.6376   38.0785   30.6474 O   0  0  0  0  0  0  0  0  0  0  0  0
   11.5803   37.0204   31.6937 C   0  0  0  0  0  0  0  0  0  0  0  0
   13.4902   37.2177   33.3237 N   0  0  0  0  0  0  0  0  0  0  0  0
   11.6118   36.3193   30.4680 O   0  0  0  0  0  0  0  0  0  0  0  0
   14.4759   36.3271   33.5731 C   0  0  0  0  0  0  0  0  0  0  0  0
   13.1176   37.6317   34.5688 C   0  0  0  0  0  0  0  0  0  0  0  0
   15.2064   35.6142   32.6742 N   0  0  0  0  0  0  0  0  0  0  0  0
   14.6729   36.2274   34.9184 C   0  0  0  0  0  0  0  0  0  0  0  0
   13.8221   37.0457   35.5783 N   0  0  0  0  0  0  0  0  0  0  0  0
   16.1637   34.7597   33.1549 C   0  0  0  0  0  0  0  0  0  0  0  0
   15.6514   35.3493   35.4133 C   0  0  0  0  0  0  0  0  0  0  0  0
   16.3791   34.6312   34.5044 N   0  0  0  0  0  0  0  0  0  0  0  0
   15.9001   35.1935   36.8091 N   0  0  0  0  0  0  0  0  0  0  0  0
    9.8119   44.9938   32.1503 H   0  0  0  0  0  0  0  0  0  0  0  0
   11.2742   46.1186   34.4984 H   0  0  0  0  0  0  0  0  0  0  0  0
   11.9220   45.7027   32.9833 H   0  0  0  0  0  0  0  0  0  0  0  0
    8.7939   45.7916   34.9660 H   0  0  0  0  0  0  0  0  0  0  0  0
    7.8365   44.9321   33.7116 H   0  0  0  0  0  0  0  0  0  0  0  0
    6.5642   48.7041   31.9079 H   0  0  0  0  0  0  0  0  0  0  0  0
    8.2161   48.7733   31.1634 H   0  0  0  0  0  0  0  0  0  0  0  0
    5.9386   45.8947   30.5554 H   0  0  0  0  0  0  0  0  0  0  0  0
    6.2465   49.1094   26.7952 H   0  0  0  0  0  0  0  0  0  0  0  0
    4.9982   45.3304   28.3631 H   0  0  0  0  0  0  0  0  0  0  0  0
    5.1743   46.9201   26.4768 H   0  0  0  0  0  0  0  0  0  0  0  0
    9.8308   40.7398   31.7558 H   0  0  0  0  0  0  0  0  0  0  0  0
   11.3997   41.5455   31.4747 H   0  0  0  0  0  0  0  0  0  0  0  0
   11.6989   39.5091   30.3489 H   0  0  0  0  0  0  0  0  0  0  0  0
   10.1130   38.2589   32.6663 H   0  0  0  0  0  0  0  0  0  0  0  0
   13.6800   37.4628   31.2265 H   0  0  0  0  0  0  0  0  0  0  0  0
    8.8953   38.6909   30.8890 H   0  0  0  0  0  0  0  0  0  0  0  0
   11.2830   36.3060   32.4929 H   0  0  0  0  0  0  0  0  0  0  0  0
   11.8859   36.9589   29.7593 H   0  0  0  0  0  0  0  0  0  0  0  0
   12.3360   38.3600   34.7441 H   0  0  0  0  0  0  0  0  0  0  0  0
   16.7572   34.1793   32.4621 H   0  0  0  0  0  0  0  0  0  0  0  0
   16.6362   34.5318   37.1415 H   0  0  0  0  0  0  0  0  0  0  0  0
   15.3528   35.7356   37.5140 H   0  0  0  0  0  0  0  0  0  0  0  0
  1  2  2  0
  1  3  1  0
  3  4  1  0
  4  5  1  0
  6  1  1  0
  7  6  1  0
  6  8  1  0
  8  9  1  0
  9 10  1  0
  9 11  2  0
 10 12  1  0
 12 13  1  0
 13 14  2  0
 15 13  1  0
 14 16  1  0
 14 17  1  0
 18 15  2  0
 16 19  1  0
 16 20  2  0
 17 21  2  0
 21 18  1  0
  4 22  2  0
  4 23  1  0
 24 23  1  0
 24 25  1  0
 25 26  1  0
 25 27  1  0
 26 28  1  0
 27 29  1  0
 27 30  1  0
 30 28  1  0
 28 31  1  0
 30 32  1  0
 33 31  1  0
 34 31  1  0
 35 33  2  0
 33 36  1  0
 37 34  2  0
 38 35  1  0
 36 39  2  0
 36 37  1  0
 40 38  2  0
 40 39  1  0
 39 41  1  0
  6 42  1  6
  7 43  1  0
  7 44  1  0
  8 45  1  0
  8 46  1  0
 12 47  1  0
 12 48  1  0
 15 49  1  0
 17 50  1  0
 18 51  1  0
 21 52  1  0
 24 53  1  0
 24 54  1  0
 25 55  1  0
 27 56  1  0
 28 57  1  0
 29 58  1  0
 30 59  1  0
 32 60  1  0
 34 61  1  0
 38 62  1  0
 41 63  1  0
 41 64  1  0
M  CHG  3   5  -1  16   1  19  -1
M  END
>  <EmbedRMS>  (515) 
0.08883693772186348

$$$$

     RDKit          3D

 64 67  0  0  0  0  0  0  0  0999 V2000
   10.2891   43.7679   33.8059 C   0  0  0  0  0  0  0  0  0  0  0  0
   11.4126   43.5787   34.3578 O   0  0  0  0  0  0  0  0  0  0  0  0
    9.3673   42.7300   33.7005 O   0  0  0  0  0  0  0  0  0  0  0  0
    9.8840   41.2329   34.2851 P   0  0  0  0  0  5  0  0  0  0  0  0
   10.3636   41.4693   35.8758 O   0  0  0  0  0  1  0  0  0  0  0  0
    9.9622   45.1126   33.2502 C   0  0  2  0  0  0  0  0  0  0  0  0
   11.0616   46.0540   33.4772 N   0  0  0  0  0  0  0  0  0  0  0  0
    8.6456   45.6676   33.8274 C   0  0  0  0  0  0  0  0  0  0  0  0
    8.6755   45.7914   35.3222 C   0  0  0  0  0  0  0  0  0  0  0  0
    8.4260   44.6611   36.1086 O   0  0  0  0  0  0  0  0  0  0  0  0
    8.9556   46.8996   35.8541 O   0  0  0  0  0  0  0  0  0  0  0  0
    8.4747   44.6650   37.5340 C   0  0  0  0  0  0  0  0  0  0  0  0
    7.3177   45.4502   38.1092 C   0  0  0  0  0  0  0  0  0  0  0  0
    7.4857   46.4676   39.0861 C   0  0  0  0  0  0  0  0  0  0  0  0
    6.0162   45.0820   37.7223 C   0  0  0  0  0  0  0  0  0  0  0  0
    8.7834   46.8979   39.5225 N   0  0  0  0  0  4  0  0  0  0  0  0
    6.3502   47.0716   39.6520 C   0  0  0  0  0  0  0  0  0  0  0  0
    4.9013   45.7075   38.2819 C   0  0  0  0  0  0  0  0  0  0  0  0
    8.9979   47.1634   40.8552 O   0  0  0  0  0  1  0  0  0  0  0  0
    9.6264   47.2873   38.6890 O   0  0  0  0  0  0  0  0  0  0  0  0
    5.0678   46.6979   39.2479 C   0  0  0  0  0  0  0  0  0  0  0  0
    8.8065   40.1903   34.2083 O   0  0  0  0  0  0  0  0  0  0  0  0
   11.2371   40.7894   33.3706 O   0  0  0  0  0  0  0  0  0  0  0  0
   10.9186   40.6903   31.9968 C   0  0  0  0  0  0  0  0  0  0  0  0
   11.5174   39.3824   31.4414 C   0  0  0  0  0  0  0  0  0  0  0  0
   12.7494   39.0893   32.0756 O   0  0  0  0  0  0  0  0  0  0  0  0
   10.6036   38.1899   31.6660 C   0  0  0  0  0  0  0  0  0  0  0  0
   12.9401   37.6834   32.0276 C   0  0  0  0  0  0  0  0  0  0  0  0
    9.6376   38.0785   30.6474 O   0  0  0  0  0  0  0  0  0  0  0  0
   11.5804   37.0204   31.6937 C   0  0  0  0  0  0  0  0  0  0  0  0
   13.4902   37.2177   33.3237 N   0  0  0  0  0  0  0  0  0  0  0  0
   11.6118   36.3193   30.4680 O   0  0  0  0  0  0  0  0  0  0  0  0
   14.4759   36.3271   33.5731 C   0  0  0  0  0  0  0  0  0  0  0  0
   13.1176   37.6317   34.5688 C   0  0  0  0  0  0  0  0  0  0  0  0
   15.2064   35.6141   32.6742 N   0  0  0  0  0  0  0  0  0  0  0  0
   14.6729   36.2274   34.9184 C   0  0  0  0  0  0  0  0  0  0  0  0
   13.8221   37.0457   35.5783 N   0  0  0  0  0  0  0  0  0  0  0  0
   16.1637   34.7597   33.1549 C   0  0  0  0  0  0  0  0  0  0  0  0
   15.6514   35.3493   35.4133 C   0  0  0  0  0  0  0  0  0  0  0  0
   16.3791   34.6312   34.5044 N   0  0  0  0  0  0  0  0  0  0  0  0
   15.9001   35.1935   36.8091 N   0  0  0  0  0  0  0  0  0  0  0  0
    9.8243   44.9975   32.1526 H   0  0  0  0  0  0  0  0  0  0  0  0
   11.9094   45.7246   32.9595 H   0  0  0  0  0  0  0  0  0  0  0  0
   11.3006   46.1006   34.4951 H   0  0  0  0  0  0  0  0  0  0  0  0
    7.8040   45.0003   33.5407 H   0  0  0  0  0  0  0  0  0  0  0  0
    8.4394   46.6630   33.3766 H   0  0  0  0  0  0  0  0  0  0  0  0
    8.3890   43.6157   37.8869 H   0  0  0  0  0  0  0  0  0  0  0  0
    9.4662   45.0248   37.8693 H   0  0  0  0  0  0  0  0  0  0  0  0
    5.8646   44.2970   36.9913 H   0  0  0  0  0  0  0  0  0  0  0  0
    6.4609   47.8478   40.3988 H   0  0  0  0  0  0  0  0  0  0  0  0
    3.9057   45.4153   37.9736 H   0  0  0  0  0  0  0  0  0  0  0  0
    4.2016   47.1774   39.6854 H   0  0  0  0  0  0  0  0  0  0  0  0
   11.4000   41.5455   31.4761 H   0  0  0  0  0  0  0  0  0  0  0  0
    9.8309   40.7398   31.7562 H   0  0  0  0  0  0  0  0  0  0  0  0
   11.6987   39.5095   30.3491 H   0  0  0  0  0  0  0  0  0  0  0  0
   10.1129   38.2587   32.6664 H   0  0  0  0  0  0  0  0  0  0  0  0
   13.6800   37.4628   31.2265 H   0  0  0  0  0  0  0  0  0  0  0  0
    8.8953   38.6909   30.8891 H   0  0  0  0  0  0  0  0  0  0  0  0
   11.2831   36.3060   32.4929 H   0  0  0  0  0  0  0  0  0  0  0  0
   11.8859   36.9589   29.7593 H   0  0  0  0  0  0  0  0  0  0  0  0
   12.3360   38.3600   34.7441 H   0  0  0  0  0  0  0  0  0  0  0  0
   16.7572   34.1793   32.4621 H   0  0  0  0  0  0  0  0  0  0  0  0
   16.6362   34.5318   37.1416 H   0  0  0  0  0  0  0  0  0  0  0  0
   15.3528   35.7357   37.5140 H   0  0  0  0  0  0  0  0  0  0  0  0
  1  2  2  0
  1  3  1  0
  3  4  1  0
  4  5  1  0
  6  1  1  0
  7  6  1  0
  6  8  1  0
  8  9  1  0
  9 10  1  0
  9 11  2  0
 10 12  1  0
 12 13  1  0
 13 14  2  0
 15 13  1  0
 14 16  1  0
 14 17  1  0
 18 15  2  0
 16 19  1  0
 16 20  2  0
 17 21  2  0
 21 18  1  0
  4 22  2  0
  4 23  1  0
 24 23  1  0
 24 25  1  0
 25 26  1  0
 25 27  1  0
 26 28  1  0
 27 29  1  0
 27 30  1  0
 30 28  1  0
 28 31  1  0
 30 32  1  0
 33 31  1  0
 34 31  1  0
 35 33  2  0
 33 36  1  0
 37 34  2  0
 38 35  1  0
 36 39  2  0
 36 37  1  0
 40 38  2  0
 40 39  1  0
 39 41  1  0
  6 42  1  6
  7 43  1  0
  7 44  1  0
  8 45  1  0
  8 46  1  0
 12 47  1  0
 12 48  1  0
 15 49  1  0
 17 50  1  0
 18 51  1  0
 21 52  1  0
 24 53  1  0
 24 54  1  0
 25 55  1  0
 27 56  1  0
 28 57  1  0
 29 58  1  0
 30 59  1  0
 32 60  1  0
 34 61  1  0
 38 62  1  0
 41 63  1  0
 41 64  1  0
M  CHG  3   5  -1  16   1  19  -1
M  END
>  <EmbedRMS>  (516) 
0.08897681151469199

$$$$

     RDKit          3D

 64 67  0  0  0  0  0  0  0  0999 V2000
   10.2894   43.7670   33.8040 C   0  0  0  0  0  0  0  0  0  0  0  0
   11.4133   43.5773   34.3551 O   0  0  0  0  0  0  0  0  0  0  0  0
    9.3669   42.7300   33.7000 O   0  0  0  0  0  0  0  0  0  0  0  0
    9.8837   41.2330   34.2849 P   0  0  0  0  0  5  0  0  0  0  0  0
   10.3641   41.4694   35.8752 O   0  0  0  0  0  1  0  0  0  0  0  0
    9.9618   45.1137   33.2515 C   0  0  2  0  0  0  0  0  0  0  0  0
   11.0615   46.0539   33.4789 N   0  0  0  0  0  0  0  0  0  0  0  0
    8.6424   45.6739   33.8230 C   0  0  0  0  0  0  0  0  0  0  0  0
    8.5546   45.5692   35.3186 C   0  0  0  0  0  0  0  0  0  0  0  0
    9.2943   46.4425   36.1236 O   0  0  0  0  0  0  0  0  0  0  0  0
    7.8407   44.6677   35.8358 O   0  0  0  0  0  0  0  0  0  0  0  0
    9.3521   46.3405   37.5465 C   0  0  0  0  0  0  0  0  0  0  0  0
   10.0641   45.0733   37.9664 C   0  0  0  0  0  0  0  0  0  0  0  0
    9.5087   44.1461   38.8870 C   0  0  0  0  0  0  0  0  0  0  0  0
   11.3648   44.8545   37.4776 C   0  0  0  0  0  0  0  0  0  0  0  0
    8.1941   44.3184   39.4367 N   0  0  0  0  0  4  0  0  0  0  0  0
   10.2680   43.0314   39.2836 C   0  0  0  0  0  0  0  0  0  0  0  0
   12.0962   43.7326   37.8692 C   0  0  0  0  0  0  0  0  0  0  0  0
    7.1074   44.4295   38.6013 O   0  0  0  0  0  1  0  0  0  0  0  0
    7.9994   44.1137   40.6526 O   0  0  0  0  0  0  0  0  0  0  0  0
   11.5492   42.8229   38.7717 C   0  0  0  0  0  0  0  0  0  0  0  0
    8.8061   40.1905   34.2091 O   0  0  0  0  0  0  0  0  0  0  0  0
   11.2359   40.7887   33.3692 O   0  0  0  0  0  0  0  0  0  0  0  0
   10.9151   40.6881   31.9958 C   0  0  0  0  0  0  0  0  0  0  0  0
   11.5259   39.3872   31.4368 C   0  0  0  0  0  0  0  0  0  0  0  0
   12.7491   39.0894   32.0820 O   0  0  0  0  0  0  0  0  0  0  0  0
   10.6122   38.1893   31.6462 C   0  0  0  0  0  0  0  0  0  0  0  0
   12.9373   37.6828   32.0302 C   0  0  0  0  0  0  0  0  0  0  0  0
    9.6150   38.0839   30.6538 O   0  0  0  0  0  0  0  0  0  0  0  0
   11.5793   37.0137   31.7014 C   0  0  0  0  0  0  0  0  0  0  0  0
   13.4906   37.2170   33.3243 N   0  0  0  0  0  0  0  0  0  0  0  0
   11.6217   36.3253   30.4725 O   0  0  0  0  0  0  0  0  0  0  0  0
   14.4763   36.3267   33.5731 C   0  0  0  0  0  0  0  0  0  0  0  0
   13.1182   37.6310   34.5695 C   0  0  0  0  0  0  0  0  0  0  0  0
   15.2065   35.6137   32.6740 N   0  0  0  0  0  0  0  0  0  0  0  0
   14.6735   36.2270   34.9185 C   0  0  0  0  0  0  0  0  0  0  0  0
   13.8229   37.0452   35.5788 N   0  0  0  0  0  0  0  0  0  0  0  0
   16.1638   34.7593   33.1547 C   0  0  0  0  0  0  0  0  0  0  0  0
   15.6518   35.3489   35.4132 C   0  0  0  0  0  0  0  0  0  0  0  0
   16.3794   34.6308   34.5042 N   0  0  0  0  0  0  0  0  0  0  0  0
   15.9006   35.1931   36.8090 N   0  0  0  0  0  0  0  0  0  0  0  0
    9.8285   45.0021   32.1529 H   0  0  0  0  0  0  0  0  0  0  0  0
   11.2986   46.1026   34.4955 H   0  0  0  0  0  0  0  0  0  0  0  0
   11.9102   45.7231   32.9634 H   0  0  0  0  0  0  0  0  0  0  0  0
    8.5318   46.7395   33.5276 H   0  0  0  0  0  0  0  0  0  0  0  0
    7.7895   45.1220   33.3696 H   0  0  0  0  0  0  0  0  0  0  0  0
    8.3315   46.4302   37.9654 H   0  0  0  0  0  0  0  0  0  0  0  0
    9.9276   47.2069   37.9351 H   0  0  0  0  0  0  0  0  0  0  0  0
   11.8195   45.5629   36.7973 H   0  0  0  0  0  0  0  0  0  0  0  0
    9.8576   42.3137   39.9830 H   0  0  0  0  0  0  0  0  0  0  0  0
   13.0930   43.5737   37.4786 H   0  0  0  0  0  0  0  0  0  0  0  0
   12.1197   41.9555   39.0776 H   0  0  0  0  0  0  0  0  0  0  0  0
    9.8250   40.7182   31.7584 H   0  0  0  0  0  0  0  0  0  0  0  0
   11.3828   41.5506   31.4746 H   0  0  0  0  0  0  0  0  0  0  0  0
   11.7288   39.5293   30.3507 H   0  0  0  0  0  0  0  0  0  0  0  0
   10.1138   38.2717   32.6380 H   0  0  0  0  0  0  0  0  0  0  0  0
   13.6726   37.4638   31.2241 H   0  0  0  0  0  0  0  0  0  0  0  0
   10.0537   38.1086   29.7639 H   0  0  0  0  0  0  0  0  0  0  0  0
   11.2646   36.3135   32.5107 H   0  0  0  0  0  0  0  0  0  0  0  0
   12.1550   35.5033   30.6315 H   0  0  0  0  0  0  0  0  0  0  0  0
   12.3363   38.3589   34.7451 H   0  0  0  0  0  0  0  0  0  0  0  0
   16.7573   34.1789   32.4619 H   0  0  0  0  0  0  0  0  0  0  0  0
   16.6366   34.5314   37.1415 H   0  0  0  0  0  0  0  0  0  0  0  0
   15.3533   35.7354   37.5139 H   0  0  0  0  0  0  0  0  0  0  0  0
  1  2  2  0
  1  3  1  0
  3  4  1  0
  4  5  1  0
  6  1  1  0
  7  6  1  0
  6  8  1  0
  8  9  1  0
  9 10  1  0
  9 11  2  0
 10 12  1  0
 12 13  1  0
 13 14  2  0
 15 13  1  0
 14 16  1  0
 14 17  1  0
 18 15  2  0
 16 19  1  0
 16 20  2  0
 17 21  2  0
 21 18  1  0
  4 22  2  0
  4 23  1  0
 24 23  1  0
 24 25  1  0
 25 26  1  0
 25 27  1  0
 26 28  1  0
 27 29  1  0
 27 30  1  0
 30 28  1  0
 28 31  1  0
 30 32  1  0
 33 31  1  0
 34 31  1  0
 35 33  2  0
 33 36  1  0
 37 34  2  0
 38 35  1  0
 36 39  2  0
 36 37  1  0
 40 38  2  0
 40 39  1  0
 39 41  1  0
  6 42  1  6
  7 43  1  0
  7 44  1  0
  8 45  1  0
  8 46  1  0
 12 47  1  0
 12 48  1  0
 15 49  1  0
 17 50  1  0
 18 51  1  0
 21 52  1  0
 24 53  1  0
 24 54  1  0
 25 55  1  0
 27 56  1  0
 28 57  1  0
 29 58  1  0
 30 59  1  0
 32 60  1  0
 34 61  1  0
 38 62  1  0
 41 63  1  0
 41 64  1  0
M  CHG  3   5  -1  16   1  19  -1
M  END
>  <EmbedRMS>  (517) 
0.088528079502613

$$$$

     RDKit          3D

 64 67  0  0  0  0  0  0  0  0999 V2000
   10.2824   43.7749   33.8050 C   0  0  0  0  0  0  0  0  0  0  0  0
   11.4046   43.5920   34.3629 O   0  0  0  0  0  0  0  0  0  0  0  0
    9.3712   42.7288   33.6975 O   0  0  0  0  0  0  0  0  0  0  0  0
    9.8871   41.2336   34.2850 P   0  0  0  0  0  5  0  0  0  0  0  0
   10.3671   41.4709   35.8751 O   0  0  0  0  0  1  0  0  0  0  0  0
    9.9496   45.1209   33.2489 C   0  0  2  0  0  0  0  0  0  0  0  0
   11.0756   46.0283   33.4807 N   0  0  0  0  0  0  0  0  0  0  0  0
    8.6703   45.6899   33.9108 C   0  0  0  0  0  0  0  0  0  0  0  0
    7.4271   45.2545   33.1914 C   0  0  0  0  0  0  0  0  0  0  0  0
    7.0108   43.9247   33.2760 O   0  0  0  0  0  0  0  0  0  0  0  0
    6.7836   46.0847   32.4929 O   0  0  0  0  0  0  0  0  0  0  0  0
    5.8759   43.4163   32.5854 C   0  0  0  0  0  0  0  0  0  0  0  0
    5.9019   41.9119   32.6450 C   0  0  0  0  0  0  0  0  0  0  0  0
    6.6231   41.1258   31.7044 C   0  0  0  0  0  0  0  0  0  0  0  0
    5.2081   41.2722   33.6875 C   0  0  0  0  0  0  0  0  0  0  0  0
    7.4059   41.7169   30.6500 N   0  0  0  0  0  4  0  0  0  0  0  0
    6.5685   39.7240   31.8035 C   0  0  0  0  0  0  0  0  0  0  0  0
    5.1863   39.8802   33.7790 C   0  0  0  0  0  0  0  0  0  0  0  0
    7.6070   41.0273   29.4763 O   0  0  0  0  0  1  0  0  0  0  0  0
    8.0632   42.7587   30.8502 O   0  0  0  0  0  0  0  0  0  0  0  0
    5.8581   39.1075   32.8341 C   0  0  0  0  0  0  0  0  0  0  0  0
    8.8093   40.1911   34.2108 O   0  0  0  0  0  0  0  0  0  0  0  0
   11.2378   40.7892   33.3688 O   0  0  0  0  0  0  0  0  0  0  0  0
   10.9137   40.6878   31.9967 C   0  0  0  0  0  0  0  0  0  0  0  0
   11.5265   39.3896   31.4372 C   0  0  0  0  0  0  0  0  0  0  0  0
   12.7503   39.0916   32.0838 O   0  0  0  0  0  0  0  0  0  0  0  0
   10.6117   38.1912   31.6444 C   0  0  0  0  0  0  0  0  0  0  0  0
   12.9426   37.6853   32.0295 C   0  0  0  0  0  0  0  0  0  0  0  0
    9.6081   38.0845   30.6583 O   0  0  0  0  0  0  0  0  0  0  0  0
   11.5842   37.0185   31.6879 C   0  0  0  0  0  0  0  0  0  0  0  0
   13.4897   37.2163   33.3249 N   0  0  0  0  0  0  0  0  0  0  0  0
   11.6201   36.3060   30.4694 O   0  0  0  0  0  0  0  0  0  0  0  0
   14.4758   36.3264   33.5738 C   0  0  0  0  0  0  0  0  0  0  0  0
   13.1174   37.6307   34.5699 C   0  0  0  0  0  0  0  0  0  0  0  0
   15.2064   35.6139   32.6746 N   0  0  0  0  0  0  0  0  0  0  0  0
   14.6731   36.2268   34.9190 C   0  0  0  0  0  0  0  0  0  0  0  0
   13.8223   37.0450   35.5792 N   0  0  0  0  0  0  0  0  0  0  0  0
   16.1639   34.7596   33.1551 C   0  0  0  0  0  0  0  0  0  0  0  0
   15.6517   35.3490   35.4136 C   0  0  0  0  0  0  0  0  0  0  0  0
   16.3794   34.6310   34.5046 N   0  0  0  0  0  0  0  0  0  0  0  0
   15.9005   35.1932   36.8094 N   0  0  0  0  0  0  0  0  0  0  0  0
    9.7947   45.0202   32.1498 H   0  0  0  0  0  0  0  0  0  0  0  0
   11.9000   45.6797   32.9378 H   0  0  0  0  0  0  0  0  0  0  0  0
   10.8464   46.9568   33.0566 H   0  0  0  0  0  0  0  0  0  0  0  0
    8.6064   45.3794   34.9768 H   0  0  0  0  0  0  0  0  0  0  0  0
    8.6991   46.8018   33.9068 H   0  0  0  0  0  0  0  0  0  0  0  0
    5.8711   43.7589   31.5284 H   0  0  0  0  0  0  0  0  0  0  0  0
    4.9515   43.8140   33.0581 H   0  0  0  0  0  0  0  0  0  0  0  0
    4.6748   41.8538   34.4296 H   0  0  0  0  0  0  0  0  0  0  0  0
    7.0981   39.1036   31.0927 H   0  0  0  0  0  0  0  0  0  0  0  0
    4.6436   39.3995   34.5828 H   0  0  0  0  0  0  0  0  0  0  0  0
    5.8369   38.0277   32.9053 H   0  0  0  0  0  0  0  0  0  0  0  0
   11.3743   41.5528   31.4734 H   0  0  0  0  0  0  0  0  0  0  0  0
    9.8235   40.7093   31.7637 H   0  0  0  0  0  0  0  0  0  0  0  0
   11.7315   39.5348   30.3521 H   0  0  0  0  0  0  0  0  0  0  0  0
   10.1190   38.2678   32.6396 H   0  0  0  0  0  0  0  0  0  0  0  0
   13.6878   37.4708   31.2318 H   0  0  0  0  0  0  0  0  0  0  0  0
   10.0262   38.1808   29.7642 H   0  0  0  0  0  0  0  0  0  0  0  0
   11.2790   36.3125   32.4917 H   0  0  0  0  0  0  0  0  0  0  0  0
   11.9860   36.9101   29.7713 H   0  0  0  0  0  0  0  0  0  0  0  0
   12.3363   38.3595   34.7453 H   0  0  0  0  0  0  0  0  0  0  0  0
   16.7575   34.1794   32.4622 H   0  0  0  0  0  0  0  0  0  0  0  0
   16.6367   34.5317   37.1419 H   0  0  0  0  0  0  0  0  0  0  0  0
   15.3530   35.7353   37.5142 H   0  0  0  0  0  0  0  0  0  0  0  0
  1  2  2  0
  1  3  1  0
  3  4  1  0
  4  5  1  0
  6  1  1  0
  7  6  1  0
  6  8  1  0
  8  9  1  0
  9 10  1  0
  9 11  2  0
 10 12  1  0
 12 13  1  0
 13 14  2  0
 15 13  1  0
 14 16  1  0
 14 17  1  0
 18 15  2  0
 16 19  1  0
 16 20  2  0
 17 21  2  0
 21 18  1  0
  4 22  2  0
  4 23  1  0
 24 23  1  0
 24 25  1  0
 25 26  1  0
 25 27  1  0
 26 28  1  0
 27 29  1  0
 27 30  1  0
 30 28  1  0
 28 31  1  0
 30 32  1  0
 33 31  1  0
 34 31  1  0
 35 33  2  0
 33 36  1  0
 37 34  2  0
 38 35  1  0
 36 39  2  0
 36 37  1  0
 40 38  2  0
 40 39  1  0
 39 41  1  0
  6 42  1  6
  7 43  1  0
  7 44  1  0
  8 45  1  0
  8 46  1  0
 12 47  1  0
 12 48  1  0
 15 49  1  0
 17 50  1  0
 18 51  1  0
 21 52  1  0
 24 53  1  0
 24 54  1  0
 25 55  1  0
 27 56  1  0
 28 57  1  0
 29 58  1  0
 30 59  1  0
 32 60  1  0
 34 61  1  0
 38 62  1  0
 41 63  1  0
 41 64  1  0
M  CHG  3   5  -1  16   1  19  -1
M  END
>  <EmbedRMS>  (518) 
0.08729359955252765

$$$$

     RDKit          3D

 64 67  0  0  0  0  0  0  0  0999 V2000
   10.2849   43.7726   33.8069 C   0  0  0  0  0  0  0  0  0  0  0  0
   11.4104   43.5875   34.3565 O   0  0  0  0  0  0  0  0  0  0  0  0
    9.3664   42.7314   33.7016 O   0  0  0  0  0  0  0  0  0  0  0  0
    9.8852   41.2343   34.2848 P   0  0  0  0  0  5  0  0  0  0  0  0
   10.3654   41.4698   35.8753 O   0  0  0  0  0  1  0  0  0  0  0  0
    9.9582   45.1108   33.2442 C   0  0  2  0  0  0  0  0  0  0  0  0
   11.0675   46.0361   33.4843 N   0  0  0  0  0  0  0  0  0  0  0  0
    8.6205   45.6594   33.7904 C   0  0  0  0  0  0  0  0  0  0  0  0
    8.5975   45.7859   35.2859 C   0  0  0  0  0  0  0  0  0  0  0  0
    8.9584   46.9978   35.8816 O   0  0  0  0  0  0  0  0  0  0  0  0
    8.2682   44.7950   35.9938 O   0  0  0  0  0  0  0  0  0  0  0  0
    8.9088   47.2065   37.2897 C   0  0  0  0  0  0  0  0  0  0  0  0
    9.3791   48.6028   37.6129 C   0  0  0  0  0  0  0  0  0  0  0  0
   10.6723   49.0648   37.2497 C   0  0  0  0  0  0  0  0  0  0  0  0
    8.4858   49.4895   38.2430 C   0  0  0  0  0  0  0  0  0  0  0  0
   11.6344   48.2036   36.6163 N   0  0  0  0  0  4  0  0  0  0  0  0
   11.0187   50.4043   37.5047 C   0  0  0  0  0  0  0  0  0  0  0  0
    8.8559   50.8099   38.5017 C   0  0  0  0  0  0  0  0  0  0  0  0
   11.8309   46.9210   37.0718 O   0  0  0  0  0  1  0  0  0  0  0  0
   12.4277   48.6683   35.7717 O   0  0  0  0  0  0  0  0  0  0  0  0
   10.1180   51.2676   38.1294 C   0  0  0  0  0  0  0  0  0  0  0  0
    8.8081   40.1911   34.2084 O   0  0  0  0  0  0  0  0  0  0  0  0
   11.2380   40.7910   33.3697 O   0  0  0  0  0  0  0  0  0  0  0  0
   10.9186   40.6906   31.9963 C   0  0  0  0  0  0  0  0  0  0  0  0
   11.5174   39.3824   31.4413 C   0  0  0  0  0  0  0  0  0  0  0  0
   12.7494   39.0893   32.0757 O   0  0  0  0  0  0  0  0  0  0  0  0
   10.6036   38.1899   31.6660 C   0  0  0  0  0  0  0  0  0  0  0  0
   12.9401   37.6834   32.0276 C   0  0  0  0  0  0  0  0  0  0  0  0
    9.6376   38.0785   30.6474 O   0  0  0  0  0  0  0  0  0  0  0  0
   11.5803   37.0204   31.6937 C   0  0  0  0  0  0  0  0  0  0  0  0
   13.4902   37.2177   33.3237 N   0  0  0  0  0  0  0  0  0  0  0  0
   11.6118   36.3193   30.4680 O   0  0  0  0  0  0  0  0  0  0  0  0
   14.4759   36.3271   33.5731 C   0  0  0  0  0  0  0  0  0  0  0  0
   13.1176   37.6317   34.5688 C   0  0  0  0  0  0  0  0  0  0  0  0
   15.2064   35.6141   32.6742 N   0  0  0  0  0  0  0  0  0  0  0  0
   14.6729   36.2274   34.9184 C   0  0  0  0  0  0  0  0  0  0  0  0
   13.8221   37.0457   35.5783 N   0  0  0  0  0  0  0  0  0  0  0  0
   16.1637   34.7597   33.1549 C   0  0  0  0  0  0  0  0  0  0  0  0
   15.6514   35.3493   35.4133 C   0  0  0  0  0  0  0  0  0  0  0  0
   16.3791   34.6312   34.5044 N   0  0  0  0  0  0  0  0  0  0  0  0
   15.9001   35.1935   36.8091 N   0  0  0  0  0  0  0  0  0  0  0  0
    9.8483   44.9841   32.1448 H   0  0  0  0  0  0  0  0  0  0  0  0
   11.1569   46.2286   34.5076 H   0  0  0  0  0  0  0  0  0  0  0  0
   10.8538   46.9458   33.0143 H   0  0  0  0  0  0  0  0  0  0  0  0
    7.7904   44.9921   33.4703 H   0  0  0  0  0  0  0  0  0  0  0  0
    8.4214   46.6560   33.3408 H   0  0  0  0  0  0  0  0  0  0  0  0
    7.8645   47.0485   37.6382 H   0  0  0  0  0  0  0  0  0  0  0  0
    9.5408   46.4613   37.8156 H   0  0  0  0  0  0  0  0  0  0  0  0
    7.4929   49.1632   38.5272 H   0  0  0  0  0  0  0  0  0  0  0  0
   11.9982   50.7770   37.2324 H   0  0  0  0  0  0  0  0  0  0  0  0
    8.1587   51.4820   38.9853 H   0  0  0  0  0  0  0  0  0  0  0  0
   10.4007   52.2936   38.3270 H   0  0  0  0  0  0  0  0  0  0  0  0
    9.8306   40.7396   31.7563 H   0  0  0  0  0  0  0  0  0  0  0  0
   11.3993   41.5455   31.4745 H   0  0  0  0  0  0  0  0  0  0  0  0
   11.6988   39.5092   30.3491 H   0  0  0  0  0  0  0  0  0  0  0  0
   10.1129   38.2588   32.6664 H   0  0  0  0  0  0  0  0  0  0  0  0
   13.6800   37.4629   31.2265 H   0  0  0  0  0  0  0  0  0  0  0  0
    8.8952   38.6908   30.8892 H   0  0  0  0  0  0  0  0  0  0  0  0
   11.2831   36.3060   32.4929 H   0  0  0  0  0  0  0  0  0  0  0  0
   11.8859   36.9590   29.7593 H   0  0  0  0  0  0  0  0  0  0  0  0
   12.3360   38.3600   34.7442 H   0  0  0  0  0  0  0  0  0  0  0  0
   16.7572   34.1793   32.4621 H   0  0  0  0  0  0  0  0  0  0  0  0
   16.6362   34.5318   37.1416 H   0  0  0  0  0  0  0  0  0  0  0  0
   15.3528   35.7356   37.5140 H   0  0  0  0  0  0  0  0  0  0  0  0
  1  2  2  0
  1  3  1  0
  3  4  1  0
  4  5  1  0
  6  1  1  0
  7  6  1  0
  6  8  1  0
  8  9  1  0
  9 10  1  0
  9 11  2  0
 10 12  1  0
 12 13  1  0
 13 14  2  0
 15 13  1  0
 14 16  1  0
 14 17  1  0
 18 15  2  0
 16 19  1  0
 16 20  2  0
 17 21  2  0
 21 18  1  0
  4 22  2  0
  4 23  1  0
 24 23  1  0
 24 25  1  0
 25 26  1  0
 25 27  1  0
 26 28  1  0
 27 29  1  0
 27 30  1  0
 30 28  1  0
 28 31  1  0
 30 32  1  0
 33 31  1  0
 34 31  1  0
 35 33  2  0
 33 36  1  0
 37 34  2  0
 38 35  1  0
 36 39  2  0
 36 37  1  0
 40 38  2  0
 40 39  1  0
 39 41  1  0
  6 42  1  6
  7 43  1  0
  7 44  1  0
  8 45  1  0
  8 46  1  0
 12 47  1  0
 12 48  1  0
 15 49  1  0
 17 50  1  0
 18 51  1  0
 21 52  1  0
 24 53  1  0
 24 54  1  0
 25 55  1  0
 27 56  1  0
 28 57  1  0
 29 58  1  0
 30 59  1  0
 32 60  1  0
 34 61  1  0
 38 62  1  0
 41 63  1  0
 41 64  1  0
M  CHG  3   5  -1  16   1  19  -1
M  END
>  <EmbedRMS>  (519) 
0.08817922855859138

$$$$

     RDKit          3D

 64 67  0  0  0  0  0  0  0  0999 V2000
   10.2844   43.7742   33.8069 C   0  0  0  0  0  0  0  0  0  0  0  0
   11.4069   43.5902   34.3636 O   0  0  0  0  0  0  0  0  0  0  0  0
    9.3679   42.7311   33.6989 O   0  0  0  0  0  0  0  0  0  0  0  0
    9.8858   41.2341   34.2835 P   0  0  0  0  0  5  0  0  0  0  0  0
   10.3663   41.4696   35.8741 O   0  0  0  0  0  1  0  0  0  0  0  0
    9.9498   45.1158   33.2540 C   0  0  2  0  0  0  0  0  0  0  0  0
   11.0751   46.0285   33.4737 N   0  0  0  0  0  0  0  0  0  0  0  0
    8.6758   45.6520   33.9373 C   0  0  0  0  0  0  0  0  0  0  0  0
    8.1983   46.9135   33.2883 C   0  0  0  0  0  0  0  0  0  0  0  0
    7.6841   46.8626   31.9884 O   0  0  0  0  0  0  0  0  0  0  0  0
    8.2980   48.0113   33.9008 O   0  0  0  0  0  0  0  0  0  0  0  0
    7.3923   48.0251   31.2153 C   0  0  0  0  0  0  0  0  0  0  0  0
    8.6666   48.7504   30.8443 C   0  0  0  0  0  0  0  0  0  0  0  0
    8.8267   50.1513   31.0040 C   0  0  0  0  0  0  0  0  0  0  0  0
    9.6950   48.0097   30.2327 C   0  0  0  0  0  0  0  0  0  0  0  0
    7.8204   50.9605   31.6294 N   0  0  0  0  0  4  0  0  0  0  0  0
   10.0029   50.7670   30.5422 C   0  0  0  0  0  0  0  0  0  0  0  0
   10.8640   48.6357   29.7981 C   0  0  0  0  0  0  0  0  0  0  0  0
    7.4018   50.6685   32.9066 O   0  0  0  0  0  1  0  0  0  0  0  0
    7.5181   52.0660   31.1348 O   0  0  0  0  0  0  0  0  0  0  0  0
   11.0162   50.0127   29.9492 C   0  0  0  0  0  0  0  0  0  0  0  0
    8.8081   40.1914   34.2081 O   0  0  0  0  0  0  0  0  0  0  0  0
   11.2374   40.7900   33.3676 O   0  0  0  0  0  0  0  0  0  0  0  0
   10.9156   40.6882   31.9946 C   0  0  0  0  0  0  0  0  0  0  0  0
   11.5262   39.3870   31.4363 C   0  0  0  0  0  0  0  0  0  0  0  0
   12.7492   39.0892   32.0818 O   0  0  0  0  0  0  0  0  0  0  0  0
   10.6123   38.1893   31.6461 C   0  0  0  0  0  0  0  0  0  0  0  0
   12.9373   37.6826   32.0301 C   0  0  0  0  0  0  0  0  0  0  0  0
    9.6150   38.0838   30.6538 O   0  0  0  0  0  0  0  0  0  0  0  0
   11.5793   37.0136   31.7014 C   0  0  0  0  0  0  0  0  0  0  0  0
   13.4906   37.2169   33.3242 N   0  0  0  0  0  0  0  0  0  0  0  0
   11.6216   36.3252   30.4725 O   0  0  0  0  0  0  0  0  0  0  0  0
   14.4763   36.3266   33.5731 C   0  0  0  0  0  0  0  0  0  0  0  0
   13.1182   37.6308   34.5694 C   0  0  0  0  0  0  0  0  0  0  0  0
   15.2065   35.6137   32.6740 N   0  0  0  0  0  0  0  0  0  0  0  0
   14.6736   36.2270   34.9185 C   0  0  0  0  0  0  0  0  0  0  0  0
   13.8229   37.0451   35.5787 N   0  0  0  0  0  0  0  0  0  0  0  0
   16.1639   34.7593   33.1547 C   0  0  0  0  0  0  0  0  0  0  0  0
   15.6519   35.3489   35.4132 C   0  0  0  0  0  0  0  0  0  0  0  0
   16.3795   34.6308   34.5042 N   0  0  0  0  0  0  0  0  0  0  0  0
   15.9006   35.1931   36.8090 N   0  0  0  0  0  0  0  0  0  0  0  0
    9.7676   45.0033   32.1609 H   0  0  0  0  0  0  0  0  0  0  0  0
   11.8952   45.6788   32.9251 H   0  0  0  0  0  0  0  0  0  0  0  0
   10.8453   46.9562   33.0497 H   0  0  0  0  0  0  0  0  0  0  0  0
    8.8719   45.8302   35.0181 H   0  0  0  0  0  0  0  0  0  0  0  0
    7.8584   44.9026   33.8594 H   0  0  0  0  0  0  0  0  0  0  0  0
    6.6666   48.6587   31.7603 H   0  0  0  0  0  0  0  0  0  0  0  0
    6.8912   47.7045   30.2779 H   0  0  0  0  0  0  0  0  0  0  0  0
    9.5873   46.9419   30.0852 H   0  0  0  0  0  0  0  0  0  0  0  0
   10.1404   51.8348   30.6581 H   0  0  0  0  0  0  0  0  0  0  0  0
   11.6489   48.0528   29.3338 H   0  0  0  0  0  0  0  0  0  0  0  0
   11.9212   50.4973   29.6061 H   0  0  0  0  0  0  0  0  0  0  0  0
   11.3829   41.5503   31.4723 H   0  0  0  0  0  0  0  0  0  0  0  0
    9.8254   40.7181   31.7577 H   0  0  0  0  0  0  0  0  0  0  0  0
   11.7292   39.5285   30.3502 H   0  0  0  0  0  0  0  0  0  0  0  0
   10.1140   38.2719   32.6379 H   0  0  0  0  0  0  0  0  0  0  0  0
   13.6726   37.4635   31.2240 H   0  0  0  0  0  0  0  0  0  0  0  0
   10.0535   38.1085   29.7638 H   0  0  0  0  0  0  0  0  0  0  0  0
   11.2646   36.3134   32.5107 H   0  0  0  0  0  0  0  0  0  0  0  0
   12.1549   35.5032   30.6316 H   0  0  0  0  0  0  0  0  0  0  0  0
   12.3362   38.3586   34.7450 H   0  0  0  0  0  0  0  0  0  0  0  0
   16.7573   34.1788   32.4619 H   0  0  0  0  0  0  0  0  0  0  0  0
   15.3533   35.7353   37.5139 H   0  0  0  0  0  0  0  0  0  0  0  0
   16.6366   34.5314   37.1415 H   0  0  0  0  0  0  0  0  0  0  0  0
  1  2  2  0
  1  3  1  0
  3  4  1  0
  4  5  1  0
  6  1  1  0
  7  6  1  0
  6  8  1  0
  8  9  1  0
  9 10  1  0
  9 11  2  0
 10 12  1  0
 12 13  1  0
 13 14  2  0
 15 13  1  0
 14 16  1  0
 14 17  1  0
 18 15  2  0
 16 19  1  0
 16 20  2  0
 17 21  2  0
 21 18  1  0
  4 22  2  0
  4 23  1  0
 24 23  1  0
 24 25  1  0
 25 26  1  0
 25 27  1  0
 26 28  1  0
 27 29  1  0
 27 30  1  0
 30 28  1  0
 28 31  1  0
 30 32  1  0
 33 31  1  0
 34 31  1  0
 35 33  2  0
 33 36  1  0
 37 34  2  0
 38 35  1  0
 36 39  2  0
 36 37  1  0
 40 38  2  0
 40 39  1  0
 39 41  1  0
  6 42  1  6
  7 43  1  0
  7 44  1  0
  8 45  1  0
  8 46  1  0
 12 47  1  0
 12 48  1  0
 15 49  1  0
 17 50  1  0
 18 51  1  0
 21 52  1  0
 24 53  1  0
 24 54  1  0
 25 55  1  0
 27 56  1  0
 28 57  1  0
 29 58  1  0
 30 59  1  0
 32 60  1  0
 34 61  1  0
 38 62  1  0
 41 63  1  0
 41 64  1  0
M  CHG  3   5  -1  16   1  19  -1
M  END
>  <EmbedRMS>  (520) 
0.08797199477185287

$$$$

     RDKit          3D

 64 67  0  0  0  0  0  0  0  0999 V2000
   10.2889   43.7680   33.8059 C   0  0  0  0  0  0  0  0  0  0  0  0
   11.4125   43.5787   34.3577 O   0  0  0  0  0  0  0  0  0  0  0  0
    9.3670   42.7302   33.7007 O   0  0  0  0  0  0  0  0  0  0  0  0
    9.8838   41.2330   34.2846 P   0  0  0  0  0  5  0  0  0  0  0  0
   10.3646   41.4691   35.8750 O   0  0  0  0  0  1  0  0  0  0  0  0
    9.9621   45.1128   33.2503 C   0  0  2  0  0  0  0  0  0  0  0  0
   11.0617   46.0541   33.4773 N   0  0  0  0  0  0  0  0  0  0  0  0
    8.6457   45.6679   33.8277 C   0  0  0  0  0  0  0  0  0  0  0  0
    8.6753   45.7910   35.3226 C   0  0  0  0  0  0  0  0  0  0  0  0
    8.4286   44.6600   36.1095 O   0  0  0  0  0  0  0  0  0  0  0  0
    8.9515   46.9001   35.8563 O   0  0  0  0  0  0  0  0  0  0  0  0
    8.4653   44.6765   37.5360 C   0  0  0  0  0  0  0  0  0  0  0  0
    7.2858   45.4283   38.1168 C   0  0  0  0  0  0  0  0  0  0  0  0
    7.3828   46.1385   39.3434 C   0  0  0  0  0  0  0  0  0  0  0  0
    6.0510   45.4017   37.4392 C   0  0  0  0  0  0  0  0  0  0  0  0
    8.5780   46.1149   40.1422 N   0  0  0  0  0  4  0  0  0  0  0  0
    6.2756   46.8738   39.8012 C   0  0  0  0  0  0  0  0  0  0  0  0
    4.9575   46.1220   37.9216 C   0  0  0  0  0  0  0  0  0  0  0  0
    8.9206   47.2135   40.8964 O   0  0  0  0  0  1  0  0  0  0  0  0
    9.1928   45.0442   40.3261 O   0  0  0  0  0  0  0  0  0  0  0  0
    5.0733   46.8668   39.0933 C   0  0  0  0  0  0  0  0  0  0  0  0
    8.8061   40.1906   34.2089 O   0  0  0  0  0  0  0  0  0  0  0  0
   11.2357   40.7897   33.3680 O   0  0  0  0  0  0  0  0  0  0  0  0
   10.9133   40.6859   31.9952 C   0  0  0  0  0  0  0  0  0  0  0  0
   11.5168   39.3798   31.4411 C   0  0  0  0  0  0  0  0  0  0  0  0
   12.7487   39.0887   32.0763 O   0  0  0  0  0  0  0  0  0  0  0  0
   10.6051   38.1876   31.6659 C   0  0  0  0  0  0  0  0  0  0  0  0
   12.9411   37.6829   32.0278 C   0  0  0  0  0  0  0  0  0  0  0  0
    9.6358   38.0930   30.6502 O   0  0  0  0  0  0  0  0  0  0  0  0
   11.5827   37.0179   31.6936 C   0  0  0  0  0  0  0  0  0  0  0  0
   13.4909   37.2177   33.3239 N   0  0  0  0  0  0  0  0  0  0  0  0
   11.6141   36.3180   30.4675 O   0  0  0  0  0  0  0  0  0  0  0  0
   14.4762   36.3270   33.5733 C   0  0  0  0  0  0  0  0  0  0  0  0
   13.1179   37.6317   34.5689 C   0  0  0  0  0  0  0  0  0  0  0  0
   15.2067   35.6140   32.6744 N   0  0  0  0  0  0  0  0  0  0  0  0
   14.6731   36.2273   34.9186 C   0  0  0  0  0  0  0  0  0  0  0  0
   13.8223   37.0456   35.5785 N   0  0  0  0  0  0  0  0  0  0  0  0
   16.1639   34.7595   33.1551 C   0  0  0  0  0  0  0  0  0  0  0  0
   15.6515   35.3491   35.4134 C   0  0  0  0  0  0  0  0  0  0  0  0
   16.3792   34.6310   34.5045 N   0  0  0  0  0  0  0  0  0  0  0  0
   15.9002   35.1934   36.8093 N   0  0  0  0  0  0  0  0  0  0  0  0
    9.8240   44.9977   32.1527 H   0  0  0  0  0  0  0  0  0  0  0  0
   11.9094   45.7245   32.9595 H   0  0  0  0  0  0  0  0  0  0  0  0
   11.3006   46.1007   34.4952 H   0  0  0  0  0  0  0  0  0  0  0  0
    8.4398   46.6635   33.3773 H   0  0  0  0  0  0  0  0  0  0  0  0
    7.8039   45.0009   33.5409 H   0  0  0  0  0  0  0  0  0  0  0  0
    8.4333   43.6298   37.9036 H   0  0  0  0  0  0  0  0  0  0  0  0
    9.4296   45.1268   37.8534 H   0  0  0  0  0  0  0  0  0  0  0  0
    5.9347   44.8333   36.5249 H   0  0  0  0  0  0  0  0  0  0  0  0
    6.3346   47.4322   40.7269 H   0  0  0  0  0  0  0  0  0  0  0  0
    4.0188   46.1049   37.3829 H   0  0  0  0  0  0  0  0  0  0  0  0
    4.2245   47.4272   39.4634 H   0  0  0  0  0  0  0  0  0  0  0  0
    9.8233   40.7211   31.7582 H   0  0  0  0  0  0  0  0  0  0  0  0
   11.3856   41.5435   31.4701 H   0  0  0  0  0  0  0  0  0  0  0  0
   11.6992   39.5069   30.3490 H   0  0  0  0  0  0  0  0  0  0  0  0
   10.1119   38.2720   32.6632 H   0  0  0  0  0  0  0  0  0  0  0  0
   13.6816   37.4633   31.2269 H   0  0  0  0  0  0  0  0  0  0  0  0
    9.0037   37.3827   30.9348 H   0  0  0  0  0  0  0  0  0  0  0  0
   11.2847   36.3040   32.4928 H   0  0  0  0  0  0  0  0  0  0  0  0
   11.8850   36.9591   29.7588 H   0  0  0  0  0  0  0  0  0  0  0  0
   12.3363   38.3599   34.7441 H   0  0  0  0  0  0  0  0  0  0  0  0
   16.7574   34.1791   32.4623 H   0  0  0  0  0  0  0  0  0  0  0  0
   16.6363   34.5317   37.1418 H   0  0  0  0  0  0  0  0  0  0  0  0
   15.3529   35.7356   37.5141 H   0  0  0  0  0  0  0  0  0  0  0  0
  1  2  2  0
  1  3  1  0
  3  4  1  0
  4  5  1  0
  6  1  1  0
  7  6  1  0
  6  8  1  0
  8  9  1  0
  9 10  1  0
  9 11  2  0
 10 12  1  0
 12 13  1  0
 13 14  2  0
 15 13  1  0
 14 16  1  0
 14 17  1  0
 18 15  2  0
 16 19  1  0
 16 20  2  0
 17 21  2  0
 21 18  1  0
  4 22  2  0
  4 23  1  0
 24 23  1  0
 24 25  1  0
 25 26  1  0
 25 27  1  0
 26 28  1  0
 27 29  1  0
 27 30  1  0
 30 28  1  0
 28 31  1  0
 30 32  1  0
 33 31  1  0
 34 31  1  0
 35 33  2  0
 33 36  1  0
 37 34  2  0
 38 35  1  0
 36 39  2  0
 36 37  1  0
 40 38  2  0
 40 39  1  0
 39 41  1  0
  6 42  1  6
  7 43  1  0
  7 44  1  0
  8 45  1  0
  8 46  1  0
 12 47  1  0
 12 48  1  0
 15 49  1  0
 17 50  1  0
 18 51  1  0
 21 52  1  0
 24 53  1  0
 24 54  1  0
 25 55  1  0
 27 56  1  0
 28 57  1  0
 29 58  1  0
 30 59  1  0
 32 60  1  0
 34 61  1  0
 38 62  1  0
 41 63  1  0
 41 64  1  0
M  CHG  3   5  -1  16   1  19  -1
M  END
>  <EmbedRMS>  (521) 
0.08850935022767248

$$$$

     RDKit          3D

 64 67  0  0  0  0  0  0  0  0999 V2000
   10.2858   43.7718   33.8049 C   0  0  0  0  0  0  0  0  0  0  0  0
   11.4099   43.5861   34.3572 O   0  0  0  0  0  0  0  0  0  0  0  0
    9.3665   42.7313   33.7006 O   0  0  0  0  0  0  0  0  0  0  0  0
    9.8848   41.2345   34.2849 P   0  0  0  0  0  5  0  0  0  0  0  0
   10.3657   41.4706   35.8752 O   0  0  0  0  0  1  0  0  0  0  0  0
    9.9561   45.1132   33.2477 C   0  0  2  0  0  0  0  0  0  0  0  0
   11.0685   46.0356   33.4826 N   0  0  0  0  0  0  0  0  0  0  0  0
    8.6505   45.6628   33.8579 C   0  0  0  0  0  0  0  0  0  0  0  0
    8.7408   45.8517   35.3438 C   0  0  0  0  0  0  0  0  0  0  0  0
    9.3085   47.0245   35.8575 O   0  0  0  0  0  0  0  0  0  0  0  0
    8.3329   44.9413   36.1159 O   0  0  0  0  0  0  0  0  0  0  0  0
    9.3786   47.3185   37.2542 C   0  0  0  0  0  0  0  0  0  0  0  0
   10.6318   46.7773   37.9192 C   0  0  0  0  0  0  0  0  0  0  0  0
   11.0013   47.2024   39.2269 C   0  0  0  0  0  0  0  0  0  0  0  0
   11.4651   45.8601   37.2448 C   0  0  0  0  0  0  0  0  0  0  0  0
   10.1985   48.1257   39.9864 N   0  0  0  0  0  4  0  0  0  0  0  0
   12.1964   46.7254   39.7944 C   0  0  0  0  0  0  0  0  0  0  0  0
   12.6372   45.3877   37.8353 C   0  0  0  0  0  0  0  0  0  0  0  0
   10.7978   48.9732   40.8899 O   0  0  0  0  0  1  0  0  0  0  0  0
    8.9528   48.0554   39.9677 O   0  0  0  0  0  0  0  0  0  0  0  0
   13.0045   45.8225   39.1052 C   0  0  0  0  0  0  0  0  0  0  0  0
    8.8076   40.1914   34.2093 O   0  0  0  0  0  0  0  0  0  0  0  0
   11.2366   40.7906   33.3692 O   0  0  0  0  0  0  0  0  0  0  0  0
   10.9153   40.6898   31.9962 C   0  0  0  0  0  0  0  0  0  0  0  0
   11.5269   39.3899   31.4375 C   0  0  0  0  0  0  0  0  0  0  0  0
   12.7507   39.0917   32.0840 O   0  0  0  0  0  0  0  0  0  0  0  0
   10.6121   38.1916   31.6452 C   0  0  0  0  0  0  0  0  0  0  0  0
   12.9429   37.6853   32.0295 C   0  0  0  0  0  0  0  0  0  0  0  0
    9.6070   38.0858   30.6603 O   0  0  0  0  0  0  0  0  0  0  0  0
   11.5845   37.0186   31.6880 C   0  0  0  0  0  0  0  0  0  0  0  0
   13.4899   37.2164   33.3250 N   0  0  0  0  0  0  0  0  0  0  0  0
   11.6202   36.3063   30.4693 O   0  0  0  0  0  0  0  0  0  0  0  0
   14.4759   36.3263   33.5739 C   0  0  0  0  0  0  0  0  0  0  0  0
   13.1176   37.6308   34.5699 C   0  0  0  0  0  0  0  0  0  0  0  0
   15.2065   35.6139   32.6746 N   0  0  0  0  0  0  0  0  0  0  0  0
   14.6731   36.2267   34.9191 C   0  0  0  0  0  0  0  0  0  0  0  0
   13.8224   37.0450   35.5792 N   0  0  0  0  0  0  0  0  0  0  0  0
   16.1640   34.7596   33.1551 C   0  0  0  0  0  0  0  0  0  0  0  0
   15.6517   35.3489   35.4136 C   0  0  0  0  0  0  0  0  0  0  0  0
   16.3795   34.6310   34.5046 N   0  0  0  0  0  0  0  0  0  0  0  0
   15.9006   35.1931   36.8094 N   0  0  0  0  0  0  0  0  0  0  0  0
    9.8038   44.9998   32.1507 H   0  0  0  0  0  0  0  0  0  0  0  0
   10.8094   46.9726   33.0961 H   0  0  0  0  0  0  0  0  0  0  0  0
   11.8886   45.7163   32.9162 H   0  0  0  0  0  0  0  0  0  0  0  0
    7.8087   44.9753   33.6216 H   0  0  0  0  0  0  0  0  0  0  0  0
    8.4071   46.6398   33.3875 H   0  0  0  0  0  0  0  0  0  0  0  0
    8.4750   46.9249   37.7675 H   0  0  0  0  0  0  0  0  0  0  0  0
    9.3752   48.4240   37.3593 H   0  0  0  0  0  0  0  0  0  0  0  0
   11.2280   45.5100   36.2532 H   0  0  0  0  0  0  0  0  0  0  0  0
   12.4960   47.0413   40.7857 H   0  0  0  0  0  0  0  0  0  0  0  0
   13.2662   44.6865   37.3019 H   0  0  0  0  0  0  0  0  0  0  0  0
   13.9169   45.4571   39.5588 H   0  0  0  0  0  0  0  0  0  0  0  0
    9.8251   40.7190   31.7591 H   0  0  0  0  0  0  0  0  0  0  0  0
   11.3821   41.5527   31.4748 H   0  0  0  0  0  0  0  0  0  0  0  0
   11.7317   39.5340   30.3522 H   0  0  0  0  0  0  0  0  0  0  0  0
   10.1214   38.2682   32.6413 H   0  0  0  0  0  0  0  0  0  0  0  0
   13.6882   37.4709   31.2319 H   0  0  0  0  0  0  0  0  0  0  0  0
   10.0257   38.1752   29.7656 H   0  0  0  0  0  0  0  0  0  0  0  0
   11.2796   36.3124   32.4916 H   0  0  0  0  0  0  0  0  0  0  0  0
   11.9871   36.9100   29.7715 H   0  0  0  0  0  0  0  0  0  0  0  0
   12.3366   38.3596   34.7454 H   0  0  0  0  0  0  0  0  0  0  0  0
   16.7576   34.1794   32.4622 H   0  0  0  0  0  0  0  0  0  0  0  0
   16.6368   34.5316   37.1418 H   0  0  0  0  0  0  0  0  0  0  0  0
   15.3532   35.7351   37.5143 H   0  0  0  0  0  0  0  0  0  0  0  0
  1  2  2  0
  1  3  1  0
  3  4  1  0
  4  5  1  0
  6  1  1  0
  7  6  1  0
  6  8  1  0
  8  9  1  0
  9 10  1  0
  9 11  2  0
 10 12  1  0
 12 13  1  0
 13 14  2  0
 15 13  1  0
 14 16  1  0
 14 17  1  0
 18 15  2  0
 16 19  1  0
 16 20  2  0
 17 21  2  0
 21 18  1  0
  4 22  2  0
  4 23  1  0
 24 23  1  0
 24 25  1  0
 25 26  1  0
 25 27  1  0
 26 28  1  0
 27 29  1  0
 27 30  1  0
 30 28  1  0
 28 31  1  0
 30 32  1  0
 33 31  1  0
 34 31  1  0
 35 33  2  0
 33 36  1  0
 37 34  2  0
 38 35  1  0
 36 39  2  0
 36 37  1  0
 40 38  2  0
 40 39  1  0
 39 41  1  0
  6 42  1  6
  7 43  1  0
  7 44  1  0
  8 45  1  0
  8 46  1  0
 12 47  1  0
 12 48  1  0
 15 49  1  0
 17 50  1  0
 18 51  1  0
 21 52  1  0
 24 53  1  0
 24 54  1  0
 25 55  1  0
 27 56  1  0
 28 57  1  0
 29 58  1  0
 30 59  1  0
 32 60  1  0
 34 61  1  0
 38 62  1  0
 41 63  1  0
 41 64  1  0
M  CHG  3   5  -1  16   1  19  -1
M  END
>  <EmbedRMS>  (522) 
0.08686693641609261

$$$$

     RDKit          3D

 64 67  0  0  0  0  0  0  0  0999 V2000
   10.2867   43.7712   33.8023 C   0  0  0  0  0  0  0  0  0  0  0  0
   11.4088   43.5879   34.3601 O   0  0  0  0  0  0  0  0  0  0  0  0
    9.3676   42.7308   33.6983 O   0  0  0  0  0  0  0  0  0  0  0  0
    9.8853   41.2343   34.2839 P   0  0  0  0  0  5  0  0  0  0  0  0
   10.3654   41.4701   35.8742 O   0  0  0  0  0  1  0  0  0  0  0  0
    9.9502   45.1170   33.2584 C   0  0  2  0  0  0  0  0  0  0  0  0
   11.0730   46.0310   33.4748 N   0  0  0  0  0  0  0  0  0  0  0  0
    8.6659   45.6704   33.9123 C   0  0  0  0  0  0  0  0  0  0  0  0
    8.7869   45.7559   35.4048 C   0  0  0  0  0  0  0  0  0  0  0  0
    9.5567   46.7741   35.9766 O   0  0  0  0  0  0  0  0  0  0  0  0
    8.2394   44.8789   36.1272 O   0  0  0  0  0  0  0  0  0  0  0  0
   10.0376   46.7266   37.3180 C   0  0  0  0  0  0  0  0  0  0  0  0
   11.1554   45.7166   37.4301 C   0  0  0  0  0  0  0  0  0  0  0  0
   12.4857   46.0009   37.0122 C   0  0  0  0  0  0  0  0  0  0  0  0
   10.8558   44.4426   37.9469 C   0  0  0  0  0  0  0  0  0  0  0  0
   12.8661   47.2790   36.4667 N   0  0  0  0  0  4  0  0  0  0  0  0
   13.4718   45.0077   37.1549 C   0  0  0  0  0  0  0  0  0  0  0  0
   11.8481   43.4701   38.0675 C   0  0  0  0  0  0  0  0  0  0  0  0
   14.1594   47.7273   36.6080 O   0  0  0  0  0  1  0  0  0  0  0  0
   12.0887   47.9227   35.7332 O   0  0  0  0  0  0  0  0  0  0  0  0
   13.1536   43.7522   37.6735 C   0  0  0  0  0  0  0  0  0  0  0  0
    8.8077   40.1915   34.2085 O   0  0  0  0  0  0  0  0  0  0  0  0
   11.2370   40.7897   33.3683 O   0  0  0  0  0  0  0  0  0  0  0  0
   10.9156   40.6883   31.9952 C   0  0  0  0  0  0  0  0  0  0  0  0
   11.5261   39.3872   31.4366 C   0  0  0  0  0  0  0  0  0  0  0  0
   12.7492   39.0893   32.0819 O   0  0  0  0  0  0  0  0  0  0  0  0
   10.6123   38.1894   31.6462 C   0  0  0  0  0  0  0  0  0  0  0  0
   12.9374   37.6827   32.0301 C   0  0  0  0  0  0  0  0  0  0  0  0
    9.6151   38.0839   30.6538 O   0  0  0  0  0  0  0  0  0  0  0  0
   11.5793   37.0137   31.7014 C   0  0  0  0  0  0  0  0  0  0  0  0
   13.4906   37.2170   33.3243 N   0  0  0  0  0  0  0  0  0  0  0  0
   11.6217   36.3253   30.4725 O   0  0  0  0  0  0  0  0  0  0  0  0
   14.4763   36.3266   33.5731 C   0  0  0  0  0  0  0  0  0  0  0  0
   13.1182   37.6310   34.5695 C   0  0  0  0  0  0  0  0  0  0  0  0
   15.2065   35.6137   32.6740 N   0  0  0  0  0  0  0  0  0  0  0  0
   14.6735   36.2270   34.9185 C   0  0  0  0  0  0  0  0  0  0  0  0
   13.8229   37.0452   35.5788 N   0  0  0  0  0  0  0  0  0  0  0  0
   16.1639   34.7593   33.1547 C   0  0  0  0  0  0  0  0  0  0  0  0
   15.6518   35.3489   35.4132 C   0  0  0  0  0  0  0  0  0  0  0  0
   16.3794   34.6308   34.5042 N   0  0  0  0  0  0  0  0  0  0  0  0
   15.9006   35.1931   36.8090 N   0  0  0  0  0  0  0  0  0  0  0  0
    9.7692   45.0141   32.1649 H   0  0  0  0  0  0  0  0  0  0  0  0
   10.8153   46.9694   33.0910 H   0  0  0  0  0  0  0  0  0  0  0  0
   11.8819   45.7051   32.8961 H   0  0  0  0  0  0  0  0  0  0  0  0
    8.4473   46.6827   33.5097 H   0  0  0  0  0  0  0  0  0  0  0  0
    7.8033   45.0213   33.6441 H   0  0  0  0  0  0  0  0  0  0  0  0
    9.2022   46.4878   38.0126 H   0  0  0  0  0  0  0  0  0  0  0  0
   10.4051   47.7314   37.6126 H   0  0  0  0  0  0  0  0  0  0  0  0
    9.8489   44.2001   38.2632 H   0  0  0  0  0  0  0  0  0  0  0  0
   14.4915   45.1997   36.8463 H   0  0  0  0  0  0  0  0  0  0  0  0
   11.6036   42.4947   38.4681 H   0  0  0  0  0  0  0  0  0  0  0  0
   13.9216   42.9955   37.7678 H   0  0  0  0  0  0  0  0  0  0  0  0
   11.3831   41.5505   31.4733 H   0  0  0  0  0  0  0  0  0  0  0  0
    9.8255   40.7183   31.7581 H   0  0  0  0  0  0  0  0  0  0  0  0
   11.7291   39.5289   30.3505 H   0  0  0  0  0  0  0  0  0  0  0  0
   10.1140   38.2719   32.6380 H   0  0  0  0  0  0  0  0  0  0  0  0
   13.6726   37.4636   31.2241 H   0  0  0  0  0  0  0  0  0  0  0  0
   10.0536   38.1087   29.7639 H   0  0  0  0  0  0  0  0  0  0  0  0
   11.2646   36.3135   32.5107 H   0  0  0  0  0  0  0  0  0  0  0  0
   12.1549   35.5033   30.6316 H   0  0  0  0  0  0  0  0  0  0  0  0
   12.3364   38.3590   34.7451 H   0  0  0  0  0  0  0  0  0  0  0  0
   16.7573   34.1788   32.4619 H   0  0  0  0  0  0  0  0  0  0  0  0
   16.6366   34.5314   37.1415 H   0  0  0  0  0  0  0  0  0  0  0  0
   15.3533   35.7354   37.5139 H   0  0  0  0  0  0  0  0  0  0  0  0
  1  2  2  0
  1  3  1  0
  3  4  1  0
  4  5  1  0
  6  1  1  0
  7  6  1  0
  6  8  1  0
  8  9  1  0
  9 10  1  0
  9 11  2  0
 10 12  1  0
 12 13  1  0
 13 14  2  0
 15 13  1  0
 14 16  1  0
 14 17  1  0
 18 15  2  0
 16 19  1  0
 16 20  2  0
 17 21  2  0
 21 18  1  0
  4 22  2  0
  4 23  1  0
 24 23  1  0
 24 25  1  0
 25 26  1  0
 25 27  1  0
 26 28  1  0
 27 29  1  0
 27 30  1  0
 30 28  1  0
 28 31  1  0
 30 32  1  0
 33 31  1  0
 34 31  1  0
 35 33  2  0
 33 36  1  0
 37 34  2  0
 38 35  1  0
 36 39  2  0
 36 37  1  0
 40 38  2  0
 40 39  1  0
 39 41  1  0
  6 42  1  6
  7 43  1  0
  7 44  1  0
  8 45  1  0
  8 46  1  0
 12 47  1  0
 12 48  1  0
 15 49  1  0
 17 50  1  0
 18 51  1  0
 21 52  1  0
 24 53  1  0
 24 54  1  0
 25 55  1  0
 27 56  1  0
 28 57  1  0
 29 58  1  0
 30 59  1  0
 32 60  1  0
 34 61  1  0
 38 62  1  0
 41 63  1  0
 41 64  1  0
M  CHG  3   5  -1  16   1  19  -1
M  END
>  <EmbedRMS>  (523) 
0.0879385063898405

$$$$

     RDKit          3D

 64 67  0  0  0  0  0  0  0  0999 V2000
   10.2827   43.7750   33.8048 C   0  0  0  0  0  0  0  0  0  0  0  0
   11.4066   43.5933   34.3594 O   0  0  0  0  0  0  0  0  0  0  0  0
    9.3702   42.7293   33.7021 O   0  0  0  0  0  0  0  0  0  0  0  0
    9.8889   41.2336   34.2851 P   0  0  0  0  0  5  0  0  0  0  0  0
   10.3699   41.4693   35.8751 O   0  0  0  0  0  1  0  0  0  0  0  0
    9.9683   45.1061   33.2101 C   0  0  2  0  0  0  0  0  0  0  0  0
   11.0586   46.0348   33.5124 N   0  0  0  0  0  0  0  0  0  0  0  0
    8.6103   45.6576   33.7109 C   0  0  0  0  0  0  0  0  0  0  0  0
    7.4739   45.1589   32.8674 C   0  0  0  0  0  0  0  0  0  0  0  0
    7.0298   43.8434   33.0164 O   0  0  0  0  0  0  0  0  0  0  0  0
    6.9650   45.9125   31.9930 O   0  0  0  0  0  0  0  0  0  0  0  0
    6.1015   43.2323   32.1274 C   0  0  0  0  0  0  0  0  0  0  0  0
    6.0185   41.7556   32.4272 C   0  0  0  0  0  0  0  0  0  0  0  0
    5.6306   41.2602   33.7032 C   0  0  0  0  0  0  0  0  0  0  0  0
    6.4031   40.8435   31.4259 C   0  0  0  0  0  0  0  0  0  0  0  0
    5.2570   42.1342   34.7849 N   0  0  0  0  0  4  0  0  0  0  0  0
    5.6438   39.8719   33.9301 C   0  0  0  0  0  0  0  0  0  0  0  0
    6.4023   39.4706   31.6723 C   0  0  0  0  0  0  0  0  0  0  0  0
    5.4815   41.7490   36.0867 O   0  0  0  0  0  1  0  0  0  0  0  0
    4.5974   43.1719   34.5737 O   0  0  0  0  0  0  0  0  0  0  0  0
    6.0231   38.9855   32.9213 C   0  0  0  0  0  0  0  0  0  0  0  0
    8.8128   40.1900   34.2109 O   0  0  0  0  0  0  0  0  0  0  0  0
   11.2383   40.7915   33.3652 O   0  0  0  0  0  0  0  0  0  0  0  0
   10.9109   40.6838   31.9935 C   0  0  0  0  0  0  0  0  0  0  0  0
   11.5158   39.3774   31.4396 C   0  0  0  0  0  0  0  0  0  0  0  0
   12.7464   39.0872   32.0755 O   0  0  0  0  0  0  0  0  0  0  0  0
   10.6055   38.1851   31.6660 C   0  0  0  0  0  0  0  0  0  0  0  0
   12.9363   37.6815   32.0290 C   0  0  0  0  0  0  0  0  0  0  0  0
    9.6391   38.0880   30.6478 O   0  0  0  0  0  0  0  0  0  0  0  0
   11.5780   37.0136   31.7048 C   0  0  0  0  0  0  0  0  0  0  0  0
   13.4912   37.2185   33.3238 N   0  0  0  0  0  0  0  0  0  0  0  0
   11.6116   36.3390   30.4676 O   0  0  0  0  0  0  0  0  0  0  0  0
   14.4763   36.3274   33.5729 C   0  0  0  0  0  0  0  0  0  0  0  0
   13.1182   37.6318   34.5690 C   0  0  0  0  0  0  0  0  0  0  0  0
   15.2064   35.6141   32.6739 N   0  0  0  0  0  0  0  0  0  0  0  0
   14.6733   36.2274   34.9183 C   0  0  0  0  0  0  0  0  0  0  0  0
   13.8225   37.0456   35.5784 N   0  0  0  0  0  0  0  0  0  0  0  0
   16.1636   34.7595   33.1547 C   0  0  0  0  0  0  0  0  0  0  0  0
   15.6515   35.3492   35.4131 C   0  0  0  0  0  0  0  0  0  0  0  0
   16.3791   34.6310   34.5042 N   0  0  0  0  0  0  0  0  0  0  0  0
   15.9003   35.1932   36.8089 N   0  0  0  0  0  0  0  0  0  0  0  0
    9.9325   44.9763   32.1047 H   0  0  0  0  0  0  0  0  0  0  0  0
   11.0128   46.3068   34.5224 H   0  0  0  0  0  0  0  0  0  0  0  0
   10.9215   46.9061   32.9497 H   0  0  0  0  0  0  0  0  0  0  0  0
    8.4378   45.3741   34.7723 H   0  0  0  0  0  0  0  0  0  0  0  0
    8.6145   46.7691   33.6684 H   0  0  0  0  0  0  0  0  0  0  0  0
    5.1024   43.7050   32.2260 H   0  0  0  0  0  0  0  0  0  0  0  0
    6.4386   43.4011   31.0807 H   0  0  0  0  0  0  0  0  0  0  0  0
    6.7164   41.1942   30.4503 H   0  0  0  0  0  0  0  0  0  0  0  0
    5.3534   39.4719   34.8932 H   0  0  0  0  0  0  0  0  0  0  0  0
    6.7011   38.7815   30.8932 H   0  0  0  0  0  0  0  0  0  0  0  0
    6.0272   37.9198   33.1109 H   0  0  0  0  0  0  0  0  0  0  0  0
   11.3792   41.5412   31.4646 H   0  0  0  0  0  0  0  0  0  0  0  0
    9.8195   40.7162   31.7604 H   0  0  0  0  0  0  0  0  0  0  0  0
   11.6986   39.5022   30.3473 H   0  0  0  0  0  0  0  0  0  0  0  0
   10.1078   38.2751   32.6607 H   0  0  0  0  0  0  0  0  0  0  0  0
   13.6701   37.4597   31.2224 H   0  0  0  0  0  0  0  0  0  0  0  0
    9.0012   37.3844   30.9365 H   0  0  0  0  0  0  0  0  0  0  0  0
   11.2700   36.3051   32.5093 H   0  0  0  0  0  0  0  0  0  0  0  0
   12.1432   35.5137   30.6144 H   0  0  0  0  0  0  0  0  0  0  0  0
   12.3358   38.3592   34.7445 H   0  0  0  0  0  0  0  0  0  0  0  0
   16.7570   34.1790   32.4620 H   0  0  0  0  0  0  0  0  0  0  0  0
   15.3532   35.7353   37.5140 H   0  0  0  0  0  0  0  0  0  0  0  0
   16.6362   34.5312   37.1413 H   0  0  0  0  0  0  0  0  0  0  0  0
  1  2  2  0
  1  3  1  0
  3  4  1  0
  4  5  1  0
  6  1  1  0
  7  6  1  0
  6  8  1  0
  8  9  1  0
  9 10  1  0
  9 11  2  0
 10 12  1  0
 12 13  1  0
 13 14  2  0
 15 13  1  0
 14 16  1  0
 14 17  1  0
 18 15  2  0
 16 19  1  0
 16 20  2  0
 17 21  2  0
 21 18  1  0
  4 22  2  0
  4 23  1  0
 24 23  1  0
 24 25  1  0
 25 26  1  0
 25 27  1  0
 26 28  1  0
 27 29  1  0
 27 30  1  0
 30 28  1  0
 28 31  1  0
 30 32  1  0
 33 31  1  0
 34 31  1  0
 35 33  2  0
 33 36  1  0
 37 34  2  0
 38 35  1  0
 36 39  2  0
 36 37  1  0
 40 38  2  0
 40 39  1  0
 39 41  1  0
  6 42  1  6
  7 43  1  0
  7 44  1  0
  8 45  1  0
  8 46  1  0
 12 47  1  0
 12 48  1  0
 15 49  1  0
 17 50  1  0
 18 51  1  0
 21 52  1  0
 24 53  1  0
 24 54  1  0
 25 55  1  0
 27 56  1  0
 28 57  1  0
 29 58  1  0
 30 59  1  0
 32 60  1  0
 34 61  1  0
 38 62  1  0
 41 63  1  0
 41 64  1  0
M  CHG  3   5  -1  16   1  19  -1
M  END
>  <EmbedRMS>  (524) 
0.08884369390563575

$$$$

     RDKit          3D

 64 67  0  0  0  0  0  0  0  0999 V2000
   10.2804   43.7770   33.8115 C   0  0  0  0  0  0  0  0  0  0  0  0
   11.4061   43.5936   34.3618 O   0  0  0  0  0  0  0  0  0  0  0  0
    9.3683   42.7303   33.7045 O   0  0  0  0  0  0  0  0  0  0  0  0
    9.8878   41.2337   34.2848 P   0  0  0  0  0  5  0  0  0  0  0  0
   10.3691   41.4680   35.8750 O   0  0  0  0  0  1  0  0  0  0  0  0
    9.9606   45.1115   33.2268 C   0  0  2  0  0  0  0  0  0  0  0  0
   11.0690   46.0305   33.4909 N   0  0  0  0  0  0  0  0  0  0  0  0
    8.6338   45.6878   33.7766 C   0  0  0  0  0  0  0  0  0  0  0  0
    7.4326   44.8818   33.3719 C   0  0  0  0  0  0  0  0  0  0  0  0
    7.4140   44.2301   32.1353 O   0  0  0  0  0  0  0  0  0  0  0  0
    6.4379   44.8169   34.1444 O   0  0  0  0  0  0  0  0  0  0  0  0
    6.3890   43.3158   31.7565 C   0  0  0  0  0  0  0  0  0  0  0  0
    6.7703   42.5612   30.5023 C   0  0  0  0  0  0  0  0  0  0  0  0
    5.7855   41.9619   29.6728 C   0  0  0  0  0  0  0  0  0  0  0  0
    8.1311   42.4050   30.1677 C   0  0  0  0  0  0  0  0  0  0  0  0
    4.3859   42.0135   30.0030 N   0  0  0  0  0  4  0  0  0  0  0  0
    6.1876   41.2890   28.5042 C   0  0  0  0  0  0  0  0  0  0  0  0
    8.5091   41.7133   29.0169 C   0  0  0  0  0  0  0  0  0  0  0  0
    3.9678   41.8287   31.3006 O   0  0  0  0  0  1  0  0  0  0  0  0
    3.5294   42.0430   29.0951 O   0  0  0  0  0  0  0  0  0  0  0  0
    7.5392   41.1650   28.1814 C   0  0  0  0  0  0  0  0  0  0  0  0
    8.8091   40.1919   34.2088 O   0  0  0  0  0  0  0  0  0  0  0  0
   11.2381   40.7918   33.3650 O   0  0  0  0  0  0  0  0  0  0  0  0
   10.9096   40.6811   31.9940 C   0  0  0  0  0  0  0  0  0  0  0  0
   11.5170   39.3770   31.4394 C   0  0  0  0  0  0  0  0  0  0  0  0
   12.7472   39.0871   32.0758 O   0  0  0  0  0  0  0  0  0  0  0  0
   10.6068   38.1844   31.6647 C   0  0  0  0  0  0  0  0  0  0  0  0
   12.9371   37.6813   32.0289 C   0  0  0  0  0  0  0  0  0  0  0  0
    9.6405   38.0884   30.6462 O   0  0  0  0  0  0  0  0  0  0  0  0
   11.5790   37.0131   31.7038 C   0  0  0  0  0  0  0  0  0  0  0  0
   13.4914   37.2182   33.3238 N   0  0  0  0  0  0  0  0  0  0  0  0
   11.6128   36.3387   30.4667 O   0  0  0  0  0  0  0  0  0  0  0  0
   14.4765   36.3272   33.5729 C   0  0  0  0  0  0  0  0  0  0  0  0
   13.1183   37.6317   34.5689 C   0  0  0  0  0  0  0  0  0  0  0  0
   15.2066   35.6139   32.6740 N   0  0  0  0  0  0  0  0  0  0  0  0
   14.6734   36.2274   34.9183 C   0  0  0  0  0  0  0  0  0  0  0  0
   13.8227   37.0456   35.5784 N   0  0  0  0  0  0  0  0  0  0  0  0
   16.1637   34.7593   33.1547 C   0  0  0  0  0  0  0  0  0  0  0  0
   15.6516   35.3491   35.4132 C   0  0  0  0  0  0  0  0  0  0  0  0
   16.3792   34.6309   34.5042 N   0  0  0  0  0  0  0  0  0  0  0  0
   15.9003   35.1933   36.8090 N   0  0  0  0  0  0  0  0  0  0  0  0
    9.8767   44.9854   32.1246 H   0  0  0  0  0  0  0  0  0  0  0  0
   10.9112   46.9096   32.9462 H   0  0  0  0  0  0  0  0  0  0  0  0
   11.0740   46.2914   34.5048 H   0  0  0  0  0  0  0  0  0  0  0  0
    8.6847   45.7455   34.8864 H   0  0  0  0  0  0  0  0  0  0  0  0
    8.4941   46.7198   33.3894 H   0  0  0  0  0  0  0  0  0  0  0  0
    6.2297   42.5786   32.5732 H   0  0  0  0  0  0  0  0  0  0  0  0
    5.4543   43.8928   31.5908 H   0  0  0  0  0  0  0  0  0  0  0  0
    8.9096   42.8207   30.7939 H   0  0  0  0  0  0  0  0  0  0  0  0
    5.4512   40.8330   27.8545 H   0  0  0  0  0  0  0  0  0  0  0  0
    9.5580   41.6034   28.7726 H   0  0  0  0  0  0  0  0  0  0  0  0
    7.8352   40.6315   27.2874 H   0  0  0  0  0  0  0  0  0  0  0  0
    9.8182   40.6995   31.7671 H   0  0  0  0  0  0  0  0  0  0  0  0
   11.3681   41.5419   31.4619 H   0  0  0  0  0  0  0  0  0  0  0  0
   11.6998   39.5030   30.3471 H   0  0  0  0  0  0  0  0  0  0  0  0
   10.1093   38.2736   32.6596 H   0  0  0  0  0  0  0  0  0  0  0  0
   13.6714   37.4598   31.2226 H   0  0  0  0  0  0  0  0  0  0  0  0
    9.0001   37.3874   30.9353 H   0  0  0  0  0  0  0  0  0  0  0  0
   11.2706   36.3044   32.5080 H   0  0  0  0  0  0  0  0  0  0  0  0
   12.1452   35.5138   30.6134 H   0  0  0  0  0  0  0  0  0  0  0  0
   12.3361   38.3592   34.7443 H   0  0  0  0  0  0  0  0  0  0  0  0
   16.7570   34.1787   32.4620 H   0  0  0  0  0  0  0  0  0  0  0  0
   16.6362   34.5314   37.1415 H   0  0  0  0  0  0  0  0  0  0  0  0
   15.3531   35.7356   37.5139 H   0  0  0  0  0  0  0  0  0  0  0  0
  1  2  2  0
  1  3  1  0
  3  4  1  0
  4  5  1  0
  6  1  1  0
  7  6  1  0
  6  8  1  0
  8  9  1  0
  9 10  1  0
  9 11  2  0
 10 12  1  0
 12 13  1  0
 13 14  2  0
 15 13  1  0
 14 16  1  0
 14 17  1  0
 18 15  2  0
 16 19  1  0
 16 20  2  0
 17 21  2  0
 21 18  1  0
  4 22  2  0
  4 23  1  0
 24 23  1  0
 24 25  1  0
 25 26  1  0
 25 27  1  0
 26 28  1  0
 27 29  1  0
 27 30  1  0
 30 28  1  0
 28 31  1  0
 30 32  1  0
 33 31  1  0
 34 31  1  0
 35 33  2  0
 33 36  1  0
 37 34  2  0
 38 35  1  0
 36 39  2  0
 36 37  1  0
 40 38  2  0
 40 39  1  0
 39 41  1  0
  6 42  1  6
  7 43  1  0
  7 44  1  0
  8 45  1  0
  8 46  1  0
 12 47  1  0
 12 48  1  0
 15 49  1  0
 17 50  1  0
 18 51  1  0
 21 52  1  0
 24 53  1  0
 24 54  1  0
 25 55  1  0
 27 56  1  0
 28 57  1  0
 29 58  1  0
 30 59  1  0
 32 60  1  0
 34 61  1  0
 38 62  1  0
 41 63  1  0
 41 64  1  0
M  CHG  3   5  -1  16   1  19  -1
M  END
>  <EmbedRMS>  (525) 
0.08889203411750896

$$$$

     RDKit          3D

 64 67  0  0  0  0  0  0  0  0999 V2000
   10.2809   43.7765   33.8070 C   0  0  0  0  0  0  0  0  0  0  0  0
   11.4066   43.5933   34.3576 O   0  0  0  0  0  0  0  0  0  0  0  0
    9.3699   42.7298   33.7029 O   0  0  0  0  0  0  0  0  0  0  0  0
    9.8876   41.2333   34.2846 P   0  0  0  0  0  5  0  0  0  0  0  0
   10.3690   41.4685   35.8746 O   0  0  0  0  0  1  0  0  0  0  0  0
    9.9562   45.1159   33.2332 C   0  0  2  0  0  0  0  0  0  0  0  0
   11.0722   46.0274   33.4933 N   0  0  0  0  0  0  0  0  0  0  0  0
    8.6350   45.6878   33.8098 C   0  0  0  0  0  0  0  0  0  0  0  0
    7.4364   45.2647   33.0093 C   0  0  0  0  0  0  0  0  0  0  0  0
    7.1735   43.9067   32.8263 O   0  0  0  0  0  0  0  0  0  0  0  0
    6.6710   46.1373   32.5155 O   0  0  0  0  0  0  0  0  0  0  0  0
    6.0725   43.4145   32.0743 C   0  0  0  0  0  0  0  0  0  0  0  0
    6.1888   41.9167   31.9680 C   0  0  0  0  0  0  0  0  0  0  0  0
    5.7312   41.0444   32.9922 C   0  0  0  0  0  0  0  0  0  0  0  0
    6.8030   41.3729   30.8256 C   0  0  0  0  0  0  0  0  0  0  0  0
    5.1549   41.5373   34.2153 N   0  0  0  0  0  4  0  0  0  0  0  0
    5.8451   39.6549   32.8073 C   0  0  0  0  0  0  0  0  0  0  0  0
    6.9213   39.9918   30.6704 C   0  0  0  0  0  0  0  0  0  0  0  0
    4.2150   40.7855   34.8822 O   0  0  0  0  0  1  0  0  0  0  0  0
    5.6249   42.5463   34.7796 O   0  0  0  0  0  0  0  0  0  0  0  0
    6.4373   39.1342   31.6561 C   0  0  0  0  0  0  0  0  0  0  0  0
    8.8094   40.1913   34.2095 O   0  0  0  0  0  0  0  0  0  0  0  0
   11.2372   40.7908   33.3650 O   0  0  0  0  0  0  0  0  0  0  0  0
   10.9104   40.6834   31.9933 C   0  0  0  0  0  0  0  0  0  0  0  0
   11.5159   39.3772   31.4394 C   0  0  0  0  0  0  0  0  0  0  0  0
   12.7464   39.0873   32.0757 O   0  0  0  0  0  0  0  0  0  0  0  0
   10.6061   38.1844   31.6650 C   0  0  0  0  0  0  0  0  0  0  0  0
   12.9368   37.6816   32.0291 C   0  0  0  0  0  0  0  0  0  0  0  0
    9.6422   38.0860   30.6452 O   0  0  0  0  0  0  0  0  0  0  0  0
   11.5789   37.0133   31.7048 C   0  0  0  0  0  0  0  0  0  0  0  0
   13.4915   37.2186   33.3239 N   0  0  0  0  0  0  0  0  0  0  0  0
   11.6131   36.3382   30.4680 O   0  0  0  0  0  0  0  0  0  0  0  0
   14.4765   36.3274   33.5730 C   0  0  0  0  0  0  0  0  0  0  0  0
   13.1183   37.6319   34.5691 C   0  0  0  0  0  0  0  0  0  0  0  0
   15.2065   35.6141   32.6740 N   0  0  0  0  0  0  0  0  0  0  0  0
   14.6734   36.2274   34.9184 C   0  0  0  0  0  0  0  0  0  0  0  0
   13.8226   37.0456   35.5785 N   0  0  0  0  0  0  0  0  0  0  0  0
   16.1636   34.7594   33.1547 C   0  0  0  0  0  0  0  0  0  0  0  0
   15.6516   35.3491   35.4131 C   0  0  0  0  0  0  0  0  0  0  0  0
   16.3791   34.6309   34.5042 N   0  0  0  0  0  0  0  0  0  0  0  0
   15.9003   35.1933   36.8090 N   0  0  0  0  0  0  0  0  0  0  0  0
    9.8632   44.9963   32.1301 H   0  0  0  0  0  0  0  0  0  0  0  0
   10.9248   46.9037   32.9410 H   0  0  0  0  0  0  0  0  0  0  0  0
   11.0768   46.2941   34.5059 H   0  0  0  0  0  0  0  0  0  0  0  0
    8.4989   45.3719   34.8671 H   0  0  0  0  0  0  0  0  0  0  0  0
    8.6772   46.7996   33.8094 H   0  0  0  0  0  0  0  0  0  0  0  0
    6.0778   43.8753   31.0617 H   0  0  0  0  0  0  0  0  0  0  0  0
    5.1157   43.7016   32.5603 H   0  0  0  0  0  0  0  0  0  0  0  0
    7.1857   42.0207   30.0464 H   0  0  0  0  0  0  0  0  0  0  0  0
    5.4971   38.9706   33.5705 H   0  0  0  0  0  0  0  0  0  0  0  0
    7.3871   39.5861   29.7818 H   0  0  0  0  0  0  0  0  0  0  0  0
    6.5287   38.0629   31.5328 H   0  0  0  0  0  0  0  0  0  0  0  0
   11.3782   41.5413   31.4648 H   0  0  0  0  0  0  0  0  0  0  0  0
    9.8194   40.7154   31.7600 H   0  0  0  0  0  0  0  0  0  0  0  0
   11.6990   39.5023   30.3471 H   0  0  0  0  0  0  0  0  0  0  0  0
   10.1058   38.2742   32.6583 H   0  0  0  0  0  0  0  0  0  0  0  0
   13.6709   37.4601   31.2227 H   0  0  0  0  0  0  0  0  0  0  0  0
    9.0153   37.3688   30.9237 H   0  0  0  0  0  0  0  0  0  0  0  0
   11.2706   36.3052   32.5095 H   0  0  0  0  0  0  0  0  0  0  0  0
   12.1445   35.5129   30.6155 H   0  0  0  0  0  0  0  0  0  0  0  0
   12.3360   38.3593   34.7446 H   0  0  0  0  0  0  0  0  0  0  0  0
   16.7569   34.1787   32.4619 H   0  0  0  0  0  0  0  0  0  0  0  0
   15.3530   35.7355   37.5139 H   0  0  0  0  0  0  0  0  0  0  0  0
   16.6361   34.5314   37.1415 H   0  0  0  0  0  0  0  0  0  0  0  0
  1  2  2  0
  1  3  1  0
  3  4  1  0
  4  5  1  0
  6  1  1  0
  7  6  1  0
  6  8  1  0
  8  9  1  0
  9 10  1  0
  9 11  2  0
 10 12  1  0
 12 13  1  0
 13 14  2  0
 15 13  1  0
 14 16  1  0
 14 17  1  0
 18 15  2  0
 16 19  1  0
 16 20  2  0
 17 21  2  0
 21 18  1  0
  4 22  2  0
  4 23  1  0
 24 23  1  0
 24 25  1  0
 25 26  1  0
 25 27  1  0
 26 28  1  0
 27 29  1  0
 27 30  1  0
 30 28  1  0
 28 31  1  0
 30 32  1  0
 33 31  1  0
 34 31  1  0
 35 33  2  0
 33 36  1  0
 37 34  2  0
 38 35  1  0
 36 39  2  0
 36 37  1  0
 40 38  2  0
 40 39  1  0
 39 41  1  0
  6 42  1  6
  7 43  1  0
  7 44  1  0
  8 45  1  0
  8 46  1  0
 12 47  1  0
 12 48  1  0
 15 49  1  0
 17 50  1  0
 18 51  1  0
 21 52  1  0
 24 53  1  0
 24 54  1  0
 25 55  1  0
 27 56  1  0
 28 57  1  0
 29 58  1  0
 30 59  1  0
 32 60  1  0
 34 61  1  0
 38 62  1  0
 41 63  1  0
 41 64  1  0
M  CHG  3   5  -1  16   1  19  -1
M  END
>  <EmbedRMS>  (526) 
0.08894817336368681

$$$$

     RDKit          3D

 64 67  0  0  0  0  0  0  0  0999 V2000
   10.2811   43.7761   33.8098 C   0  0  0  0  0  0  0  0  0  0  0  0
   11.4071   43.5920   34.3592 O   0  0  0  0  0  0  0  0  0  0  0  0
    9.3696   42.7295   33.6984 O   0  0  0  0  0  0  0  0  0  0  0  0
    9.8864   41.2339   34.2846 P   0  0  0  0  0  5  0  0  0  0  0  0
   10.3661   41.4703   35.8750 O   0  0  0  0  0  1  0  0  0  0  0  0
    9.9503   45.1173   33.2487 C   0  0  2  0  0  0  0  0  0  0  0  0
   11.0751   46.0256   33.4794 N   0  0  0  0  0  0  0  0  0  0  0  0
    8.6567   45.6936   33.8669 C   0  0  0  0  0  0  0  0  0  0  0  0
    7.4402   44.9346   33.4329 C   0  0  0  0  0  0  0  0  0  0  0  0
    6.8339   44.0397   34.3223 O   0  0  0  0  0  0  0  0  0  0  0  0
    6.9916   45.0850   32.2635 O   0  0  0  0  0  0  0  0  0  0  0  0
    5.7185   43.2224   33.9690 C   0  0  0  0  0  0  0  0  0  0  0  0
    4.4557   44.0411   33.8038 C   0  0  0  0  0  0  0  0  0  0  0  0
    3.4501   43.6808   32.8688 C   0  0  0  0  0  0  0  0  0  0  0  0
    4.2604   45.1765   34.6142 C   0  0  0  0  0  0  0  0  0  0  0  0
    3.5382   42.4721   32.0955 N   0  0  0  0  0  4  0  0  0  0  0  0
    2.3286   44.5147   32.7098 C   0  0  0  0  0  0  0  0  0  0  0  0
    3.1310   45.9805   34.4543 C   0  0  0  0  0  0  0  0  0  0  0  0
    3.9210   41.2935   32.6935 O   0  0  0  0  0  1  0  0  0  0  0  0
    3.0782   42.4363   30.9354 O   0  0  0  0  0  0  0  0  0  0  0  0
    2.1732   45.6572   33.4955 C   0  0  0  0  0  0  0  0  0  0  0  0
    8.8080   40.1919   34.2087 O   0  0  0  0  0  0  0  0  0  0  0  0
   11.2377   40.7897   33.3690 O   0  0  0  0  0  0  0  0  0  0  0  0
   10.9157   40.6896   31.9961 C   0  0  0  0  0  0  0  0  0  0  0  0
   11.5270   39.3897   31.4372 C   0  0  0  0  0  0  0  0  0  0  0  0
   12.7508   39.0915   32.0836 O   0  0  0  0  0  0  0  0  0  0  0  0
   10.6121   38.1916   31.6452 C   0  0  0  0  0  0  0  0  0  0  0  0
   12.9429   37.6852   32.0294 C   0  0  0  0  0  0  0  0  0  0  0  0
    9.6069   38.0858   30.6603 O   0  0  0  0  0  0  0  0  0  0  0  0
   11.5844   37.0185   31.6879 C   0  0  0  0  0  0  0  0  0  0  0  0
   13.4898   37.2163   33.3249 N   0  0  0  0  0  0  0  0  0  0  0  0
   11.6201   36.3062   30.4692 O   0  0  0  0  0  0  0  0  0  0  0  0
   14.4759   36.3263   33.5738 C   0  0  0  0  0  0  0  0  0  0  0  0
   13.1175   37.6307   34.5698 C   0  0  0  0  0  0  0  0  0  0  0  0
   15.2065   35.6139   32.6746 N   0  0  0  0  0  0  0  0  0  0  0  0
   14.6731   36.2267   34.9190 C   0  0  0  0  0  0  0  0  0  0  0  0
   13.8224   37.0450   35.5792 N   0  0  0  0  0  0  0  0  0  0  0  0
   16.1640   34.7596   33.1551 C   0  0  0  0  0  0  0  0  0  0  0  0
   15.6517   35.3489   35.4136 C   0  0  0  0  0  0  0  0  0  0  0  0
   16.3795   34.6310   34.5046 N   0  0  0  0  0  0  0  0  0  0  0  0
   15.9006   35.1931   36.8094 N   0  0  0  0  0  0  0  0  0  0  0  0
    9.8134   45.0030   32.1501 H   0  0  0  0  0  0  0  0  0  0  0  0
   10.9070   46.9083   32.9435 H   0  0  0  0  0  0  0  0  0  0  0  0
   11.1174   46.2824   34.4936 H   0  0  0  0  0  0  0  0  0  0  0  0
    8.5344   46.7526   33.5518 H   0  0  0  0  0  0  0  0  0  0  0  0
    8.7256   45.6817   34.9768 H   0  0  0  0  0  0  0  0  0  0  0  0
    5.9720   42.6744   33.0368 H   0  0  0  0  0  0  0  0  0  0  0  0
    5.5546   42.4776   34.7753 H   0  0  0  0  0  0  0  0  0  0  0  0
    4.9913   45.4516   35.3643 H   0  0  0  0  0  0  0  0  0  0  0  0
    1.5568   44.2628   31.9934 H   0  0  0  0  0  0  0  0  0  0  0  0
    3.0004   46.8585   35.0737 H   0  0  0  0  0  0  0  0  0  0  0  0
    1.2996   46.2842   33.3716 H   0  0  0  0  0  0  0  0  0  0  0  0
    9.8254   40.7190   31.7591 H   0  0  0  0  0  0  0  0  0  0  0  0
   11.3825   41.5525   31.4747 H   0  0  0  0  0  0  0  0  0  0  0  0
   11.7317   39.5338   30.3518 H   0  0  0  0  0  0  0  0  0  0  0  0
   10.1215   38.2683   32.6413 H   0  0  0  0  0  0  0  0  0  0  0  0
   13.6882   37.4706   31.2318 H   0  0  0  0  0  0  0  0  0  0  0  0
   10.0255   38.1751   29.7656 H   0  0  0  0  0  0  0  0  0  0  0  0
   11.2795   36.3123   32.4915 H   0  0  0  0  0  0  0  0  0  0  0  0
   11.9870   36.9099   29.7714 H   0  0  0  0  0  0  0  0  0  0  0  0
   12.3365   38.3595   34.7453 H   0  0  0  0  0  0  0  0  0  0  0  0
   16.7577   34.1794   32.4622 H   0  0  0  0  0  0  0  0  0  0  0  0
   16.6368   34.5316   37.1418 H   0  0  0  0  0  0  0  0  0  0  0  0
   15.3532   35.7351   37.5143 H   0  0  0  0  0  0  0  0  0  0  0  0
  1  2  2  0
  1  3  1  0
  3  4  1  0
  4  5  1  0
  6  1  1  0
  7  6  1  0
  6  8  1  0
  8  9  1  0
  9 10  1  0
  9 11  2  0
 10 12  1  0
 12 13  1  0
 13 14  2  0
 15 13  1  0
 14 16  1  0
 14 17  1  0
 18 15  2  0
 16 19  1  0
 16 20  2  0
 17 21  2  0
 21 18  1  0
  4 22  2  0
  4 23  1  0
 24 23  1  0
 24 25  1  0
 25 26  1  0
 25 27  1  0
 26 28  1  0
 27 29  1  0
 27 30  1  0
 30 28  1  0
 28 31  1  0
 30 32  1  0
 33 31  1  0
 34 31  1  0
 35 33  2  0
 33 36  1  0
 37 34  2  0
 38 35  1  0
 36 39  2  0
 36 37  1  0
 40 38  2  0
 40 39  1  0
 39 41  1  0
  6 42  1  6
  7 43  1  0
  7 44  1  0
  8 45  1  0
  8 46  1  0
 12 47  1  0
 12 48  1  0
 15 49  1  0
 17 50  1  0
 18 51  1  0
 21 52  1  0
 24 53  1  0
 24 54  1  0
 25 55  1  0
 27 56  1  0
 28 57  1  0
 29 58  1  0
 30 59  1  0
 32 60  1  0
 34 61  1  0
 38 62  1  0
 41 63  1  0
 41 64  1  0
M  CHG  3   5  -1  16   1  19  -1
M  END
>  <EmbedRMS>  (527) 
0.0870951689462755

$$$$

     RDKit          3D

 64 67  0  0  0  0  0  0  0  0999 V2000
   10.2871   43.7712   33.8022 C   0  0  0  0  0  0  0  0  0  0  0  0
   11.4093   43.5878   34.3593 O   0  0  0  0  0  0  0  0  0  0  0  0
    9.3678   42.7307   33.6983 O   0  0  0  0  0  0  0  0  0  0  0  0
    9.8849   41.2345   34.2847 P   0  0  0  0  0  5  0  0  0  0  0  0
   10.3649   41.4714   35.8752 O   0  0  0  0  0  1  0  0  0  0  0  0
    9.9522   45.1154   33.2550 C   0  0  2  0  0  0  0  0  0  0  0  0
   11.0705   46.0336   33.4782 N   0  0  0  0  0  0  0  0  0  0  0  0
    8.6617   45.6646   33.8966 C   0  0  0  0  0  0  0  0  0  0  0  0
    8.7926   45.8354   35.3809 C   0  0  0  0  0  0  0  0  0  0  0  0
    8.5514   44.7422   36.2212 O   0  0  0  0  0  0  0  0  0  0  0  0
    9.1540   46.9468   35.8558 O   0  0  0  0  0  0  0  0  0  0  0  0
    8.6776   44.8049   37.6413 C   0  0  0  0  0  0  0  0  0  0  0  0
    7.5700   45.6288   38.2633 C   0  0  0  0  0  0  0  0  0  0  0  0
    7.7800   46.3934   39.4407 C   0  0  0  0  0  0  0  0  0  0  0  0
    6.2908   45.6189   37.6738 C   0  0  0  0  0  0  0  0  0  0  0  0
    9.0284   46.3538   40.1526 N   0  0  0  0  0  4  0  0  0  0  0  0
    6.7345   47.1929   39.9370 C   0  0  0  0  0  0  0  0  0  0  0  0
    5.2607   46.4044   38.1928 C   0  0  0  0  0  0  0  0  0  0  0  0
    9.6582   45.1517   40.3797 O   0  0  0  0  0  1  0  0  0  0  0  0
    9.4455   47.3723   40.7418 O   0  0  0  0  0  0  0  0  0  0  0  0
    5.4856   47.1994   39.3147 C   0  0  0  0  0  0  0  0  0  0  0  0
    8.8074   40.1916   34.2092 O   0  0  0  0  0  0  0  0  0  0  0  0
   11.2367   40.7898   33.3695 O   0  0  0  0  0  0  0  0  0  0  0  0
   10.9156   40.6897   31.9964 C   0  0  0  0  0  0  0  0  0  0  0  0
   11.5270   39.3898   31.4375 C   0  0  0  0  0  0  0  0  0  0  0  0
   12.7508   39.0916   32.0838 O   0  0  0  0  0  0  0  0  0  0  0  0
   10.6122   38.1916   31.6452 C   0  0  0  0  0  0  0  0  0  0  0  0
   12.9429   37.6852   32.0295 C   0  0  0  0  0  0  0  0  0  0  0  0
    9.6070   38.0858   30.6603 O   0  0  0  0  0  0  0  0  0  0  0  0
   11.5845   37.0186   31.6880 C   0  0  0  0  0  0  0  0  0  0  0  0
   13.4899   37.2163   33.3250 N   0  0  0  0  0  0  0  0  0  0  0  0
   11.6201   36.3063   30.4693 O   0  0  0  0  0  0  0  0  0  0  0  0
   14.4759   36.3263   33.5738 C   0  0  0  0  0  0  0  0  0  0  0  0
   13.1176   37.6307   34.5699 C   0  0  0  0  0  0  0  0  0  0  0  0
   15.2065   35.6139   32.6746 N   0  0  0  0  0  0  0  0  0  0  0  0
   14.6731   36.2267   34.9191 C   0  0  0  0  0  0  0  0  0  0  0  0
   13.8224   37.0450   35.5792 N   0  0  0  0  0  0  0  0  0  0  0  0
   16.1640   34.7596   33.1551 C   0  0  0  0  0  0  0  0  0  0  0  0
   15.6518   35.3489   35.4136 C   0  0  0  0  0  0  0  0  0  0  0  0
   16.3795   34.6310   34.5046 N   0  0  0  0  0  0  0  0  0  0  0  0
   15.9006   35.1931   36.8094 N   0  0  0  0  0  0  0  0  0  0  0  0
    9.7794   45.0091   32.1604 H   0  0  0  0  0  0  0  0  0  0  0  0
   11.8810   45.7141   32.8981 H   0  0  0  0  0  0  0  0  0  0  0  0
   10.8084   46.9726   33.0985 H   0  0  0  0  0  0  0  0  0  0  0  0
    8.4041   46.6419   33.4333 H   0  0  0  0  0  0  0  0  0  0  0  0
    7.8153   44.9754   33.6853 H   0  0  0  0  0  0  0  0  0  0  0  0
    8.6228   43.7738   38.0481 H   0  0  0  0  0  0  0  0  0  0  0  0
    9.6783   45.2211   37.8834 H   0  0  0  0  0  0  0  0  0  0  0  0
    6.0906   45.0124   36.7993 H   0  0  0  0  0  0  0  0  0  0  0  0
    6.8792   47.7921   40.8271 H   0  0  0  0  0  0  0  0  0  0  0  0
    4.2864   46.3988   37.7213 H   0  0  0  0  0  0  0  0  0  0  0  0
    4.6858   47.8100   39.7135 H   0  0  0  0  0  0  0  0  0  0  0  0
    9.8255   40.7191   31.7590 H   0  0  0  0  0  0  0  0  0  0  0  0
   11.3827   41.5526   31.4753 H   0  0  0  0  0  0  0  0  0  0  0  0
   11.7317   39.5340   30.3521 H   0  0  0  0  0  0  0  0  0  0  0  0
   10.1214   38.2682   32.6413 H   0  0  0  0  0  0  0  0  0  0  0  0
   13.6882   37.4707   31.2319 H   0  0  0  0  0  0  0  0  0  0  0  0
   10.0257   38.1752   29.7656 H   0  0  0  0  0  0  0  0  0  0  0  0
   11.2796   36.3123   32.4915 H   0  0  0  0  0  0  0  0  0  0  0  0
   11.9871   36.9099   29.7715 H   0  0  0  0  0  0  0  0  0  0  0  0
   12.3365   38.3596   34.7453 H   0  0  0  0  0  0  0  0  0  0  0  0
   16.7577   34.1794   32.4622 H   0  0  0  0  0  0  0  0  0  0  0  0
   16.6368   34.5316   37.1418 H   0  0  0  0  0  0  0  0  0  0  0  0
   15.3532   35.7351   37.5143 H   0  0  0  0  0  0  0  0  0  0  0  0
  1  2  2  0
  1  3  1  0
  3  4  1  0
  4  5  1  0
  6  1  1  0
  7  6  1  0
  6  8  1  0
  8  9  1  0
  9 10  1  0
  9 11  2  0
 10 12  1  0
 12 13  1  0
 13 14  2  0
 15 13  1  0
 14 16  1  0
 14 17  1  0
 18 15  2  0
 16 19  1  0
 16 20  2  0
 17 21  2  0
 21 18  1  0
  4 22  2  0
  4 23  1  0
 24 23  1  0
 24 25  1  0
 25 26  1  0
 25 27  1  0
 26 28  1  0
 27 29  1  0
 27 30  1  0
 30 28  1  0
 28 31  1  0
 30 32  1  0
 33 31  1  0
 34 31  1  0
 35 33  2  0
 33 36  1  0
 37 34  2  0
 38 35  1  0
 36 39  2  0
 36 37  1  0
 40 38  2  0
 40 39  1  0
 39 41  1  0
  6 42  1  6
  7 43  1  0
  7 44  1  0
  8 45  1  0
  8 46  1  0
 12 47  1  0
 12 48  1  0
 15 49  1  0
 17 50  1  0
 18 51  1  0
 21 52  1  0
 24 53  1  0
 24 54  1  0
 25 55  1  0
 27 56  1  0
 28 57  1  0
 29 58  1  0
 30 59  1  0
 32 60  1  0
 34 61  1  0
 38 62  1  0
 41 63  1  0
 41 64  1  0
M  CHG  3   5  -1  16   1  19  -1
M  END
>  <EmbedRMS>  (528) 
0.0870026772008461

$$$$

     RDKit          3D

 64 67  0  0  0  0  0  0  0  0999 V2000
   10.2862   43.7710   33.8099 C   0  0  0  0  0  0  0  0  0  0  0  0
   11.4099   43.5819   34.3617 O   0  0  0  0  0  0  0  0  0  0  0  0
    9.3670   42.7307   33.7016 O   0  0  0  0  0  0  0  0  0  0  0  0
    9.8850   41.2327   34.2837 P   0  0  0  0  0  5  0  0  0  0  0  0
   10.3652   41.4675   35.8745 O   0  0  0  0  0  1  0  0  0  0  0  0
    9.9604   45.1126   33.2476 C   0  0  2  0  0  0  0  0  0  0  0  0
   11.0659   46.0473   33.4745 N   0  0  0  0  0  0  0  0  0  0  0  0
    8.6654   45.6576   33.8732 C   0  0  0  0  0  0  0  0  0  0  0  0
    8.2720   46.9608   33.2495 C   0  0  0  0  0  0  0  0  0  0  0  0
    8.7821   48.1528   33.7706 O   0  0  0  0  0  0  0  0  0  0  0  0
    7.5195   46.9702   32.2372 O   0  0  0  0  0  0  0  0  0  0  0  0
    8.4743   49.4289   33.2185 C   0  0  0  0  0  0  0  0  0  0  0  0
    9.2395   50.4987   33.9572 C   0  0  0  0  0  0  0  0  0  0  0  0
   10.6578   50.4768   34.0652 C   0  0  0  0  0  0  0  0  0  0  0  0
    8.5189   51.5260   34.5946 C   0  0  0  0  0  0  0  0  0  0  0  0
   11.4588   49.4636   33.4293 N   0  0  0  0  0  4  0  0  0  0  0  0
   11.3005   51.4649   34.8321 C   0  0  0  0  0  0  0  0  0  0  0  0
    9.1795   52.5057   35.3367 C   0  0  0  0  0  0  0  0  0  0  0  0
   12.6527   49.0779   33.9944 O   0  0  0  0  0  1  0  0  0  0  0  0
   11.1748   49.0475   32.2878 O   0  0  0  0  0  0  0  0  0  0  0  0
   10.5668   52.4726   35.4590 C   0  0  0  0  0  0  0  0  0  0  0  0
    8.8074   40.1901   34.2072 O   0  0  0  0  0  0  0  0  0  0  0  0
   11.2378   40.7898   33.3683 O   0  0  0  0  0  0  0  0  0  0  0  0
   10.9186   40.6887   31.9946 C   0  0  0  0  0  0  0  0  0  0  0  0
   11.5180   39.3800   31.4397 C   0  0  0  0  0  0  0  0  0  0  0  0
   12.7484   39.0875   32.0750 O   0  0  0  0  0  0  0  0  0  0  0  0
   10.6053   38.1874   31.6656 C   0  0  0  0  0  0  0  0  0  0  0  0
   12.9361   37.6816   32.0288 C   0  0  0  0  0  0  0  0  0  0  0  0
    9.6423   38.0737   30.6445 O   0  0  0  0  0  0  0  0  0  0  0  0
   11.5765   37.0158   31.7046 C   0  0  0  0  0  0  0  0  0  0  0  0
   13.4908   37.2183   33.3237 N   0  0  0  0  0  0  0  0  0  0  0  0
   11.6103   36.3399   30.4680 O   0  0  0  0  0  0  0  0  0  0  0  0
   14.4762   36.3274   33.5728 C   0  0  0  0  0  0  0  0  0  0  0  0
   13.1181   37.6318   34.5689 C   0  0  0  0  0  0  0  0  0  0  0  0
   15.2063   35.6141   32.6739 N   0  0  0  0  0  0  0  0  0  0  0  0
   14.6733   36.2275   34.9182 C   0  0  0  0  0  0  0  0  0  0  0  0
   13.8226   37.0457   35.5783 N   0  0  0  0  0  0  0  0  0  0  0  0
   16.1636   34.7595   33.1546 C   0  0  0  0  0  0  0  0  0  0  0  0
   15.6515   35.3492   35.4130 C   0  0  0  0  0  0  0  0  0  0  0  0
   16.3791   34.6310   34.5041 N   0  0  0  0  0  0  0  0  0  0  0  0
   15.9002   35.1933   36.8089 N   0  0  0  0  0  0  0  0  0  0  0  0
    9.8084   44.9959   32.1516 H   0  0  0  0  0  0  0  0  0  0  0  0
   11.2757   46.1201   34.4976 H   0  0  0  0  0  0  0  0  0  0  0  0
   11.9223   45.7018   32.9821 H   0  0  0  0  0  0  0  0  0  0  0  0
    8.8021   45.8028   34.9672 H   0  0  0  0  0  0  0  0  0  0  0  0
    7.8379   44.9283   33.7296 H   0  0  0  0  0  0  0  0  0  0  0  0
    7.3775   49.5964   33.2945 H   0  0  0  0  0  0  0  0  0  0  0  0
    8.7361   49.4586   32.1398 H   0  0  0  0  0  0  0  0  0  0  0  0
    7.4387   51.5661   34.5271 H   0  0  0  0  0  0  0  0  0  0  0  0
   12.3785   51.4653   34.9319 H   0  0  0  0  0  0  0  0  0  0  0  0
    8.6130   53.2888   35.8239 H   0  0  0  0  0  0  0  0  0  0  0  0
   11.0762   53.2314   36.0390 H   0  0  0  0  0  0  0  0  0  0  0  0
    9.8307   40.7374   31.7548 H   0  0  0  0  0  0  0  0  0  0  0  0
   11.3991   41.5435   31.4725 H   0  0  0  0  0  0  0  0  0  0  0  0
   11.7002   39.5045   30.3472 H   0  0  0  0  0  0  0  0  0  0  0  0
   10.1104   38.2618   32.6636 H   0  0  0  0  0  0  0  0  0  0  0  0
   13.6696   37.4587   31.2222 H   0  0  0  0  0  0  0  0  0  0  0  0
    8.9000   38.6881   30.8814 H   0  0  0  0  0  0  0  0  0  0  0  0
   11.2690   36.3069   32.5091 H   0  0  0  0  0  0  0  0  0  0  0  0
   12.1427   35.5151   30.6153 H   0  0  0  0  0  0  0  0  0  0  0  0
   12.3359   38.3593   34.7445 H   0  0  0  0  0  0  0  0  0  0  0  0
   16.7569   34.1789   32.4618 H   0  0  0  0  0  0  0  0  0  0  0  0
   16.6362   34.5315   37.1413 H   0  0  0  0  0  0  0  0  0  0  0  0
   15.3530   35.7356   37.5138 H   0  0  0  0  0  0  0  0  0  0  0  0
  1  2  2  0
  1  3  1  0
  3  4  1  0
  4  5  1  0
  6  1  1  0
  7  6  1  0
  6  8  1  0
  8  9  1  0
  9 10  1  0
  9 11  2  0
 10 12  1  0
 12 13  1  0
 13 14  2  0
 15 13  1  0
 14 16  1  0
 14 17  1  0
 18 15  2  0
 16 19  1  0
 16 20  2  0
 17 21  2  0
 21 18  1  0
  4 22  2  0
  4 23  1  0
 24 23  1  0
 24 25  1  0
 25 26  1  0
 25 27  1  0
 26 28  1  0
 27 29  1  0
 27 30  1  0
 30 28  1  0
 28 31  1  0
 30 32  1  0
 33 31  1  0
 34 31  1  0
 35 33  2  0
 33 36  1  0
 37 34  2  0
 38 35  1  0
 36 39  2  0
 36 37  1  0
 40 38  2  0
 40 39  1  0
 39 41  1  0
  6 42  1  6
  7 43  1  0
  7 44  1  0
  8 45  1  0
  8 46  1  0
 12 47  1  0
 12 48  1  0
 15 49  1  0
 17 50  1  0
 18 51  1  0
 21 52  1  0
 24 53  1  0
 24 54  1  0
 25 55  1  0
 27 56  1  0
 28 57  1  0
 29 58  1  0
 30 59  1  0
 32 60  1  0
 34 61  1  0
 38 62  1  0
 41 63  1  0
 41 64  1  0
M  CHG  3   5  -1  16   1  19  -1
M  END
>  <EmbedRMS>  (529) 
0.08981690160348718

$$$$

     RDKit          3D

 64 67  0  0  0  0  0  0  0  0999 V2000
   10.2817   43.7754   33.8090 C   0  0  0  0  0  0  0  0  0  0  0  0
   11.4046   43.5918   34.3651 O   0  0  0  0  0  0  0  0  0  0  0  0
    9.3719   42.7281   33.6916 O   0  0  0  0  0  0  0  0  0  0  0  0
    9.8865   41.2338   34.2833 P   0  0  0  0  0  5  0  0  0  0  0  0
   10.3647   41.4723   35.8741 O   0  0  0  0  0  1  0  0  0  0  0  0
    9.9406   45.1249   33.2718 C   0  0  2  0  0  0  0  0  0  0  0  0
   11.0824   46.0215   33.4611 N   0  0  0  0  0  0  0  0  0  0  0  0
    8.7078   45.7095   33.9944 C   0  0  0  0  0  0  0  0  0  0  0  0
    7.4410   44.9657   33.6560 C   0  0  0  0  0  0  0  0  0  0  0  0
    6.8473   44.0209   34.5070 O   0  0  0  0  0  0  0  0  0  0  0  0
    6.9194   45.1583   32.5262 O   0  0  0  0  0  0  0  0  0  0  0  0
    7.1639   43.8020   35.8829 C   0  0  0  0  0  0  0  0  0  0  0  0
    6.4911   44.8316   36.7623 C   0  0  0  0  0  0  0  0  0  0  0  0
    5.0864   44.8301   37.0008 C   0  0  0  0  0  0  0  0  0  0  0  0
    7.2929   45.7892   37.4127 C   0  0  0  0  0  0  0  0  0  0  0  0
    4.2058   43.8393   36.4350 N   0  0  0  0  0  4  0  0  0  0  0  0
    4.5393   45.7999   37.8610 C   0  0  0  0  0  0  0  0  0  0  0  0
    6.7249   46.7470   38.2523 C   0  0  0  0  0  0  0  0  0  0  0  0
    3.0581   43.4812   37.1046 O   0  0  0  0  0  1  0  0  0  0  0  0
    4.3823   43.4017   35.2806 O   0  0  0  0  0  0  0  0  0  0  0  0
    5.3505   46.7552   38.4726 C   0  0  0  0  0  0  0  0  0  0  0  0
    8.8079   40.1920   34.2083 O   0  0  0  0  0  0  0  0  0  0  0  0
   11.2380   40.7880   33.3693 O   0  0  0  0  0  0  0  0  0  0  0  0
   10.9168   40.6893   31.9960 C   0  0  0  0  0  0  0  0  0  0  0  0
   11.5275   39.3895   31.4370 C   0  0  0  0  0  0  0  0  0  0  0  0
   12.7513   39.0912   32.0833 O   0  0  0  0  0  0  0  0  0  0  0  0
   10.6124   38.1916   31.6451 C   0  0  0  0  0  0  0  0  0  0  0  0
   12.9430   37.6849   32.0293 C   0  0  0  0  0  0  0  0  0  0  0  0
    9.6070   38.0858   30.6603 O   0  0  0  0  0  0  0  0  0  0  0  0
   11.5845   37.0184   31.6879 C   0  0  0  0  0  0  0  0  0  0  0  0
   13.4899   37.2162   33.3249 N   0  0  0  0  0  0  0  0  0  0  0  0
   11.6200   36.3061   30.4692 O   0  0  0  0  0  0  0  0  0  0  0  0
   14.4759   36.3263   33.5739 C   0  0  0  0  0  0  0  0  0  0  0  0
   13.1175   37.6307   34.5698 C   0  0  0  0  0  0  0  0  0  0  0  0
   15.2066   35.6138   32.6746 N   0  0  0  0  0  0  0  0  0  0  0  0
   14.6731   36.2267   34.9191 C   0  0  0  0  0  0  0  0  0  0  0  0
   13.8224   37.0450   35.5792 N   0  0  0  0  0  0  0  0  0  0  0  0
   16.1641   34.7595   33.1552 C   0  0  0  0  0  0  0  0  0  0  0  0
   15.6517   35.3489   35.4136 C   0  0  0  0  0  0  0  0  0  0  0  0
   16.3795   34.6310   34.5046 N   0  0  0  0  0  0  0  0  0  0  0  0
   15.9006   35.1931   36.8094 N   0  0  0  0  0  0  0  0  0  0  0  0
    9.7249   45.0329   32.1830 H   0  0  0  0  0  0  0  0  0  0  0  0
   11.8751   45.6760   32.8711 H   0  0  0  0  0  0  0  0  0  0  0  0
   10.8378   46.9601   33.0689 H   0  0  0  0  0  0  0  0  0  0  0  0
    8.5668   46.7657   33.6772 H   0  0  0  0  0  0  0  0  0  0  0  0
    8.8925   45.7383   35.0823 H   0  0  0  0  0  0  0  0  0  0  0  0
    6.7974   42.7950   36.1726 H   0  0  0  0  0  0  0  0  0  0  0  0
    8.2636   43.7724   36.0341 H   0  0  0  0  0  0  0  0  0  0  0  0
    8.3679   45.7860   37.2921 H   0  0  0  0  0  0  0  0  0  0  0  0
    3.4744   45.8213   38.0553 H   0  0  0  0  0  0  0  0  0  0  0  0
    7.3546   47.4785   38.7422 H   0  0  0  0  0  0  0  0  0  0  0  0
    4.9128   47.4970   39.1282 H   0  0  0  0  0  0  0  0  0  0  0  0
    9.8268   40.7194   31.7581 H   0  0  0  0  0  0  0  0  0  0  0  0
   11.3847   41.5523   31.4757 H   0  0  0  0  0  0  0  0  0  0  0  0
   11.7321   39.5336   30.3515 H   0  0  0  0  0  0  0  0  0  0  0  0
   10.1217   38.2684   32.6412 H   0  0  0  0  0  0  0  0  0  0  0  0
   13.6883   37.4700   31.2318 H   0  0  0  0  0  0  0  0  0  0  0  0
   10.0256   38.1750   29.7656 H   0  0  0  0  0  0  0  0  0  0  0  0
   11.2795   36.3122   32.4915 H   0  0  0  0  0  0  0  0  0  0  0  0
   11.9870   36.9098   29.7714 H   0  0  0  0  0  0  0  0  0  0  0  0
   12.3364   38.3595   34.7452 H   0  0  0  0  0  0  0  0  0  0  0  0
   16.7577   34.1794   32.4623 H   0  0  0  0  0  0  0  0  0  0  0  0
   15.3532   35.7351   37.5144 H   0  0  0  0  0  0  0  0  0  0  0  0
   16.6368   34.5316   37.1419 H   0  0  0  0  0  0  0  0  0  0  0  0
  1  2  2  0
  1  3  1  0
  3  4  1  0
  4  5  1  0
  6  1  1  0
  7  6  1  0
  6  8  1  0
  8  9  1  0
  9 10  1  0
  9 11  2  0
 10 12  1  0
 12 13  1  0
 13 14  2  0
 15 13  1  0
 14 16  1  0
 14 17  1  0
 18 15  2  0
 16 19  1  0
 16 20  2  0
 17 21  2  0
 21 18  1  0
  4 22  2  0
  4 23  1  0
 24 23  1  0
 24 25  1  0
 25 26  1  0
 25 27  1  0
 26 28  1  0
 27 29  1  0
 27 30  1  0
 30 28  1  0
 28 31  1  0
 30 32  1  0
 33 31  1  0
 34 31  1  0
 35 33  2  0
 33 36  1  0
 37 34  2  0
 38 35  1  0
 36 39  2  0
 36 37  1  0
 40 38  2  0
 40 39  1  0
 39 41  1  0
  6 42  1  6
  7 43  1  0
  7 44  1  0
  8 45  1  0
  8 46  1  0
 12 47  1  0
 12 48  1  0
 15 49  1  0
 17 50  1  0
 18 51  1  0
 21 52  1  0
 24 53  1  0
 24 54  1  0
 25 55  1  0
 27 56  1  0
 28 57  1  0
 29 58  1  0
 30 59  1  0
 32 60  1  0
 34 61  1  0
 38 62  1  0
 41 63  1  0
 41 64  1  0
M  CHG  3   5  -1  16   1  19  -1
M  END
>  <EmbedRMS>  (530) 
0.08771732542886006

$$$$

     RDKit          3D

 64 67  0  0  0  0  0  0  0  0999 V2000
   10.2865   43.7712   33.8023 C   0  0  0  0  0  0  0  0  0  0  0  0
   11.4109   43.5852   34.3527 O   0  0  0  0  0  0  0  0  0  0  0  0
    9.3669   42.7309   33.6998 O   0  0  0  0  0  0  0  0  0  0  0  0
    9.8850   41.2343   34.2848 P   0  0  0  0  0  5  0  0  0  0  0  0
   10.3655   41.4697   35.8749 O   0  0  0  0  0  1  0  0  0  0  0  0
    9.9554   45.1141   33.2506 C   0  0  2  0  0  0  0  0  0  0  0  0
   11.0684   46.0361   33.4843 N   0  0  0  0  0  0  0  0  0  0  0  0
    8.6499   45.6649   33.8637 C   0  0  0  0  0  0  0  0  0  0  0  0
    8.7733   45.9994   35.3240 C   0  0  0  0  0  0  0  0  0  0  0  0
    9.2528   45.0399   36.2204 O   0  0  0  0  0  0  0  0  0  0  0  0
    8.4070   47.1336   35.7367 O   0  0  0  0  0  0  0  0  0  0  0  0
    9.2675   45.2370   37.6301 C   0  0  0  0  0  0  0  0  0  0  0  0
    9.9906   44.0891   38.2906 C   0  0  0  0  0  0  0  0  0  0  0  0
   11.3681   43.8081   38.0516 C   0  0  0  0  0  0  0  0  0  0  0  0
    9.2507   43.2310   39.1264 C   0  0  0  0  0  0  0  0  0  0  0  0
   12.1936   44.6255   37.1952 N   0  0  0  0  0  4  0  0  0  0  0  0
   11.9434   42.6727   38.6537 C   0  0  0  0  0  0  0  0  0  0  0  0
    9.8481   42.1185   39.7177 C   0  0  0  0  0  0  0  0  0  0  0  0
   13.3311   44.0957   36.6296 O   0  0  0  0  0  1  0  0  0  0  0  0
   11.9809   45.8473   37.0626 O   0  0  0  0  0  0  0  0  0  0  0  0
   11.1907   41.8390   39.4804 C   0  0  0  0  0  0  0  0  0  0  0  0
    8.8075   40.1914   34.2093 O   0  0  0  0  0  0  0  0  0  0  0  0
   11.2367   40.7898   33.3688 O   0  0  0  0  0  0  0  0  0  0  0  0
   10.9152   40.6883   31.9956 C   0  0  0  0  0  0  0  0  0  0  0  0
   11.5260   39.3873   31.4368 C   0  0  0  0  0  0  0  0  0  0  0  0
   12.7491   39.0894   32.0821 O   0  0  0  0  0  0  0  0  0  0  0  0
   10.6123   38.1894   31.6462 C   0  0  0  0  0  0  0  0  0  0  0  0
   12.9373   37.6828   32.0302 C   0  0  0  0  0  0  0  0  0  0  0  0
    9.6151   38.0840   30.6538 O   0  0  0  0  0  0  0  0  0  0  0  0
   11.5793   37.0138   31.7015 C   0  0  0  0  0  0  0  0  0  0  0  0
   13.4906   37.2171   33.3243 N   0  0  0  0  0  0  0  0  0  0  0  0
   11.6217   36.3254   30.4726 O   0  0  0  0  0  0  0  0  0  0  0  0
   14.4763   36.3267   33.5732 C   0  0  0  0  0  0  0  0  0  0  0  0
   13.1182   37.6310   34.5695 C   0  0  0  0  0  0  0  0  0  0  0  0
   15.2065   35.6138   32.6740 N   0  0  0  0  0  0  0  0  0  0  0  0
   14.6735   36.2270   34.9185 C   0  0  0  0  0  0  0  0  0  0  0  0
   13.8229   37.0452   35.5788 N   0  0  0  0  0  0  0  0  0  0  0  0
   16.1638   34.7593   33.1547 C   0  0  0  0  0  0  0  0  0  0  0  0
   15.6518   35.3490   35.4132 C   0  0  0  0  0  0  0  0  0  0  0  0
   16.3794   34.6308   34.5042 N   0  0  0  0  0  0  0  0  0  0  0  0
   15.9006   35.1931   36.8090 N   0  0  0  0  0  0  0  0  0  0  0  0
    9.8006   45.0004   32.1539 H   0  0  0  0  0  0  0  0  0  0  0  0
   11.8857   45.7200   32.9117 H   0  0  0  0  0  0  0  0  0  0  0  0
   10.8056   46.9744   33.1036 H   0  0  0  0  0  0  0  0  0  0  0  0
    7.8289   44.9272   33.7344 H   0  0  0  0  0  0  0  0  0  0  0  0
    8.3520   46.5777   33.3023 H   0  0  0  0  0  0  0  0  0  0  0  0
    9.7552   46.1985   37.8924 H   0  0  0  0  0  0  0  0  0  0  0  0
    8.2175   45.3097   37.9888 H   0  0  0  0  0  0  0  0  0  0  0  0
    8.2005   43.4160   39.3166 H   0  0  0  0  0  0  0  0  0  0  0  0
   12.9863   42.4333   38.4907 H   0  0  0  0  0  0  0  0  0  0  0  0
    9.2657   41.4676   40.3570 H   0  0  0  0  0  0  0  0  0  0  0  0
   11.6509   40.9726   39.9378 H   0  0  0  0  0  0  0  0  0  0  0  0
    9.8251   40.7181   31.7587 H   0  0  0  0  0  0  0  0  0  0  0  0
   11.3825   41.5506   31.4737 H   0  0  0  0  0  0  0  0  0  0  0  0
   11.7289   39.5292   30.3507 H   0  0  0  0  0  0  0  0  0  0  0  0
   10.1138   38.2718   32.6381 H   0  0  0  0  0  0  0  0  0  0  0  0
   13.6726   37.4638   31.2241 H   0  0  0  0  0  0  0  0  0  0  0  0
   10.0537   38.1088   29.7639 H   0  0  0  0  0  0  0  0  0  0  0  0
   11.2646   36.3135   32.5108 H   0  0  0  0  0  0  0  0  0  0  0  0
   12.1550   35.5034   30.6316 H   0  0  0  0  0  0  0  0  0  0  0  0
   12.3364   38.3590   34.7452 H   0  0  0  0  0  0  0  0  0  0  0  0
   16.7573   34.1789   32.4619 H   0  0  0  0  0  0  0  0  0  0  0  0
   16.6366   34.5314   37.1415 H   0  0  0  0  0  0  0  0  0  0  0  0
   15.3533   35.7354   37.5139 H   0  0  0  0  0  0  0  0  0  0  0  0
  1  2  2  0
  1  3  1  0
  3  4  1  0
  4  5  1  0
  6  1  1  0
  7  6  1  0
  6  8  1  0
  8  9  1  0
  9 10  1  0
  9 11  2  0
 10 12  1  0
 12 13  1  0
 13 14  2  0
 15 13  1  0
 14 16  1  0
 14 17  1  0
 18 15  2  0
 16 19  1  0
 16 20  2  0
 17 21  2  0
 21 18  1  0
  4 22  2  0
  4 23  1  0
 24 23  1  0
 24 25  1  0
 25 26  1  0
 25 27  1  0
 26 28  1  0
 27 29  1  0
 27 30  1  0
 30 28  1  0
 28 31  1  0
 30 32  1  0
 33 31  1  0
 34 31  1  0
 35 33  2  0
 33 36  1  0
 37 34  2  0
 38 35  1  0
 36 39  2  0
 36 37  1  0
 40 38  2  0
 40 39  1  0
 39 41  1  0
  6 42  1  6
  7 43  1  0
  7 44  1  0
  8 45  1  0
  8 46  1  0
 12 47  1  0
 12 48  1  0
 15 49  1  0
 17 50  1  0
 18 51  1  0
 21 52  1  0
 24 53  1  0
 24 54  1  0
 25 55  1  0
 27 56  1  0
 28 57  1  0
 29 58  1  0
 30 59  1  0
 32 60  1  0
 34 61  1  0
 38 62  1  0
 41 63  1  0
 41 64  1  0
M  CHG  3   5  -1  16   1  19  -1
M  END
>  <EmbedRMS>  (531) 
0.08788326455757034

$$$$

     RDKit          3D

 64 67  0  0  0  0  0  0  0  0999 V2000
   10.2842   43.7744   33.8072 C   0  0  0  0  0  0  0  0  0  0  0  0
   11.4067   43.5904   34.3637 O   0  0  0  0  0  0  0  0  0  0  0  0
    9.3676   42.7312   33.6993 O   0  0  0  0  0  0  0  0  0  0  0  0
    9.8856   41.2344   34.2841 P   0  0  0  0  0  5  0  0  0  0  0  0
   10.3660   41.4698   35.8746 O   0  0  0  0  0  1  0  0  0  0  0  0
    9.9498   45.1157   33.2534 C   0  0  2  0  0  0  0  0  0  0  0  0
   11.0753   46.0280   33.4738 N   0  0  0  0  0  0  0  0  0  0  0  0
    8.6754   45.6526   33.9350 C   0  0  0  0  0  0  0  0  0  0  0  0
    8.1888   46.9067   33.2777 C   0  0  0  0  0  0  0  0  0  0  0  0
    7.6155   46.8363   32.0029 O   0  0  0  0  0  0  0  0  0  0  0  0
    8.3294   48.0165   33.8608 O   0  0  0  0  0  0  0  0  0  0  0  0
    7.2496   47.9918   31.2489 C   0  0  0  0  0  0  0  0  0  0  0  0
    8.4723   48.7482   30.7735 C   0  0  0  0  0  0  0  0  0  0  0  0
    8.4850   50.1638   30.6726 C   0  0  0  0  0  0  0  0  0  0  0  0
    9.6252   48.0265   30.4079 C   0  0  0  0  0  0  0  0  0  0  0  0
    7.3052   50.9474   30.9176 N   0  0  0  0  0  4  0  0  0  0  0  0
    9.6748   50.8158   30.3011 C   0  0  0  0  0  0  0  0  0  0  0  0
   10.7909   48.6910   30.0252 C   0  0  0  0  0  0  0  0  0  0  0  0
    6.0946   50.5577   30.3925 O   0  0  0  0  0  1  0  0  0  0  0  0
    7.4026   52.0830   31.4270 O   0  0  0  0  0  0  0  0  0  0  0  0
   10.8194   50.0834   29.9839 C   0  0  0  0  0  0  0  0  0  0  0  0
    8.8081   40.1914   34.2083 O   0  0  0  0  0  0  0  0  0  0  0  0
   11.2373   40.7906   33.3686 O   0  0  0  0  0  0  0  0  0  0  0  0
   10.9157   40.6898   31.9957 C   0  0  0  0  0  0  0  0  0  0  0  0
   11.5271   39.3898   31.4372 C   0  0  0  0  0  0  0  0  0  0  0  0
   12.7508   39.0916   32.0838 O   0  0  0  0  0  0  0  0  0  0  0  0
   10.6122   38.1916   31.6451 C   0  0  0  0  0  0  0  0  0  0  0  0
   12.9429   37.6852   32.0295 C   0  0  0  0  0  0  0  0  0  0  0  0
    9.6070   38.0858   30.6603 O   0  0  0  0  0  0  0  0  0  0  0  0
   11.5845   37.0186   31.6879 C   0  0  0  0  0  0  0  0  0  0  0  0
   13.4899   37.2163   33.3250 N   0  0  0  0  0  0  0  0  0  0  0  0
   11.6201   36.3062   30.4693 O   0  0  0  0  0  0  0  0  0  0  0  0
   14.4759   36.3263   33.5738 C   0  0  0  0  0  0  0  0  0  0  0  0
   13.1176   37.6307   34.5699 C   0  0  0  0  0  0  0  0  0  0  0  0
   15.2065   35.6139   32.6746 N   0  0  0  0  0  0  0  0  0  0  0  0
   14.6731   36.2267   34.9191 C   0  0  0  0  0  0  0  0  0  0  0  0
   13.8224   37.0450   35.5792 N   0  0  0  0  0  0  0  0  0  0  0  0
   16.1640   34.7596   33.1551 C   0  0  0  0  0  0  0  0  0  0  0  0
   15.6518   35.3489   35.4136 C   0  0  0  0  0  0  0  0  0  0  0  0
   16.3795   34.6310   34.5046 N   0  0  0  0  0  0  0  0  0  0  0  0
   15.9006   35.1931   36.8094 N   0  0  0  0  0  0  0  0  0  0  0  0
    9.7684   45.0017   32.1605 H   0  0  0  0  0  0  0  0  0  0  0  0
   11.8938   45.6813   32.9210 H   0  0  0  0  0  0  0  0  0  0  0  0
   10.8439   46.9580   33.0561 H   0  0  0  0  0  0  0  0  0  0  0  0
    8.8733   45.8407   35.0138 H   0  0  0  0  0  0  0  0  0  0  0  0
    7.8612   44.8989   33.8666 H   0  0  0  0  0  0  0  0  0  0  0  0
    6.6659   47.6686   30.3621 H   0  0  0  0  0  0  0  0  0  0  0  0
    6.5961   48.6279   31.8822 H   0  0  0  0  0  0  0  0  0  0  0  0
    9.6301   46.9442   30.4349 H   0  0  0  0  0  0  0  0  0  0  0  0
    9.7075   51.8958   30.2302 H   0  0  0  0  0  0  0  0  0  0  0  0
   11.6751   48.1242   29.7637 H   0  0  0  0  0  0  0  0  0  0  0  0
   11.7257   50.5968   29.6892 H   0  0  0  0  0  0  0  0  0  0  0  0
    9.8256   40.7191   31.7585 H   0  0  0  0  0  0  0  0  0  0  0  0
   11.3826   41.5526   31.4741 H   0  0  0  0  0  0  0  0  0  0  0  0
   11.7320   39.5337   30.3518 H   0  0  0  0  0  0  0  0  0  0  0  0
   10.1215   38.2683   32.6412 H   0  0  0  0  0  0  0  0  0  0  0  0
   13.6882   37.4707   31.2319 H   0  0  0  0  0  0  0  0  0  0  0  0
   10.0256   38.1751   29.7656 H   0  0  0  0  0  0  0  0  0  0  0  0
   11.2795   36.3124   32.4915 H   0  0  0  0  0  0  0  0  0  0  0  0
   11.9872   36.9099   29.7714 H   0  0  0  0  0  0  0  0  0  0  0  0
   12.3365   38.3595   34.7453 H   0  0  0  0  0  0  0  0  0  0  0  0
   16.7577   34.1794   32.4622 H   0  0  0  0  0  0  0  0  0  0  0  0
   15.3532   35.7351   37.5143 H   0  0  0  0  0  0  0  0  0  0  0  0
   16.6368   34.5316   37.1418 H   0  0  0  0  0  0  0  0  0  0  0  0
  1  2  2  0
  1  3  1  0
  3  4  1  0
  4  5  1  0
  6  1  1  0
  7  6  1  0
  6  8  1  0
  8  9  1  0
  9 10  1  0
  9 11  2  0
 10 12  1  0
 12 13  1  0
 13 14  2  0
 15 13  1  0
 14 16  1  0
 14 17  1  0
 18 15  2  0
 16 19  1  0
 16 20  2  0
 17 21  2  0
 21 18  1  0
  4 22  2  0
  4 23  1  0
 24 23  1  0
 24 25  1  0
 25 26  1  0
 25 27  1  0
 26 28  1  0
 27 29  1  0
 27 30  1  0
 30 28  1  0
 28 31  1  0
 30 32  1  0
 33 31  1  0
 34 31  1  0
 35 33  2  0
 33 36  1  0
 37 34  2  0
 38 35  1  0
 36 39  2  0
 36 37  1  0
 40 38  2  0
 40 39  1  0
 39 41  1  0
  6 42  1  6
  7 43  1  0
  7 44  1  0
  8 45  1  0
  8 46  1  0
 12 47  1  0
 12 48  1  0
 15 49  1  0
 17 50  1  0
 18 51  1  0
 21 52  1  0
 24 53  1  0
 24 54  1  0
 25 55  1  0
 27 56  1  0
 28 57  1  0
 29 58  1  0
 30 59  1  0
 32 60  1  0
 34 61  1  0
 38 62  1  0
 41 63  1  0
 41 64  1  0
M  CHG  3   5  -1  16   1  19  -1
M  END
>  <EmbedRMS>  (532) 
0.08703053556410448

$$$$

     RDKit          3D

 64 67  0  0  0  0  0  0  0  0999 V2000
   10.2860   43.7737   33.8065 C   0  0  0  0  0  0  0  0  0  0  0  0
   11.4077   43.5905   34.3646 O   0  0  0  0  0  0  0  0  0  0  0  0
    9.3691   42.7305   33.6986 O   0  0  0  0  0  0  0  0  0  0  0  0
    9.8864   41.2339   34.2832 P   0  0  0  0  0  5  0  0  0  0  0  0
   10.3675   41.4697   35.8735 O   0  0  0  0  0  1  0  0  0  0  0  0
    9.9548   45.1116   33.2429 C   0  0  2  0  0  0  0  0  0  0  0  0
   11.0691   46.0317   33.4821 N   0  0  0  0  0  0  0  0  0  0  0  0
    8.6630   45.6440   33.8975 C   0  0  0  0  0  0  0  0  0  0  0  0
    8.0800   46.8062   33.1347 C   0  0  0  0  0  0  0  0  0  0  0  0
    7.2467   46.6424   32.0164 O   0  0  0  0  0  0  0  0  0  0  0  0
    8.3680   47.9761   33.5009 O   0  0  0  0  0  0  0  0  0  0  0  0
    6.8038   45.3874   31.4937 C   0  0  0  0  0  0  0  0  0  0  0  0
    5.7743   44.7299   32.3878 C   0  0  0  0  0  0  0  0  0  0  0  0
    5.6708   43.3172   32.4889 C   0  0  0  0  0  0  0  0  0  0  0  0
    4.8929   45.5358   33.1337 C   0  0  0  0  0  0  0  0  0  0  0  0
    6.4646   42.4413   31.6693 N   0  0  0  0  0  4  0  0  0  0  0  0
    4.7549   42.7593   33.3991 C   0  0  0  0  0  0  0  0  0  0  0  0
    3.9771   44.9617   34.0163 C   0  0  0  0  0  0  0  0  0  0  0  0
    6.6395   42.7130   30.3320 O   0  0  0  0  0  1  0  0  0  0  0  0
    6.8236   41.3288   32.1072 O   0  0  0  0  0  0  0  0  0  0  0  0
    3.9172   43.5770   34.1584 C   0  0  0  0  0  0  0  0  0  0  0  0
    8.8087   40.1911   34.2094 O   0  0  0  0  0  0  0  0  0  0  0  0
   11.2371   40.7902   33.3656 O   0  0  0  0  0  0  0  0  0  0  0  0
   10.9130   40.6843   31.9931 C   0  0  0  0  0  0  0  0  0  0  0  0
   11.5171   39.3775   31.4393 C   0  0  0  0  0  0  0  0  0  0  0  0
   12.7474   39.0870   32.0755 O   0  0  0  0  0  0  0  0  0  0  0  0
   10.6066   38.1853   31.6656 C   0  0  0  0  0  0  0  0  0  0  0  0
   12.9370   37.6812   32.0290 C   0  0  0  0  0  0  0  0  0  0  0  0
    9.6400   38.0884   30.6475 O   0  0  0  0  0  0  0  0  0  0  0  0
   11.5786   37.0135   31.7045 C   0  0  0  0  0  0  0  0  0  0  0  0
   13.4914   37.2183   33.3238 N   0  0  0  0  0  0  0  0  0  0  0  0
   11.6122   36.3390   30.4674 O   0  0  0  0  0  0  0  0  0  0  0  0
   14.4765   36.3273   33.5730 C   0  0  0  0  0  0  0  0  0  0  0  0
   13.1184   37.6317   34.5690 C   0  0  0  0  0  0  0  0  0  0  0  0
   15.2066   35.6140   32.6740 N   0  0  0  0  0  0  0  0  0  0  0  0
   14.6735   36.2274   34.9184 C   0  0  0  0  0  0  0  0  0  0  0  0
   13.8227   37.0456   35.5785 N   0  0  0  0  0  0  0  0  0  0  0  0
   16.1637   34.7593   33.1547 C   0  0  0  0  0  0  0  0  0  0  0  0
   15.6516   35.3491   35.4132 C   0  0  0  0  0  0  0  0  0  0  0  0
   16.3792   34.6309   34.5042 N   0  0  0  0  0  0  0  0  0  0  0  0
   15.9003   35.1933   36.8090 N   0  0  0  0  0  0  0  0  0  0  0  0
    9.8087   44.9911   32.1474 H   0  0  0  0  0  0  0  0  0  0  0  0
   10.8324   46.9598   33.0633 H   0  0  0  0  0  0  0  0  0  0  0  0
   11.8994   45.6935   32.9416 H   0  0  0  0  0  0  0  0  0  0  0  0
    8.8815   45.9598   34.9417 H   0  0  0  0  0  0  0  0  0  0  0  0
    7.9016   44.8420   33.9718 H   0  0  0  0  0  0  0  0  0  0  0  0
    6.3385   45.5658   30.5022 H   0  0  0  0  0  0  0  0  0  0  0  0
    7.6836   44.7327   31.3398 H   0  0  0  0  0  0  0  0  0  0  0  0
    4.9238   46.6147   33.0471 H   0  0  0  0  0  0  0  0  0  0  0  0
    4.6700   41.6847   33.5009 H   0  0  0  0  0  0  0  0  0  0  0  0
    3.3155   45.5931   34.5953 H   0  0  0  0  0  0  0  0  0  0  0  0
    3.2087   43.1346   34.8468 H   0  0  0  0  0  0  0  0  0  0  0  0
   11.3838   41.5417   31.4663 H   0  0  0  0  0  0  0  0  0  0  0  0
    9.8226   40.7188   31.7574 H   0  0  0  0  0  0  0  0  0  0  0  0
   11.7002   39.5020   30.3469 H   0  0  0  0  0  0  0  0  0  0  0  0
   10.1095   38.2754   32.6606 H   0  0  0  0  0  0  0  0  0  0  0  0
   13.6710   37.4593   31.2226 H   0  0  0  0  0  0  0  0  0  0  0  0
    9.0014   37.3856   30.9363 H   0  0  0  0  0  0  0  0  0  0  0  0
   11.2703   36.3050   32.5088 H   0  0  0  0  0  0  0  0  0  0  0  0
   12.1440   35.5137   30.6142 H   0  0  0  0  0  0  0  0  0  0  0  0
   12.3360   38.3592   34.7444 H   0  0  0  0  0  0  0  0  0  0  0  0
   16.7570   34.1787   32.4620 H   0  0  0  0  0  0  0  0  0  0  0  0
   15.3531   35.7356   37.5139 H   0  0  0  0  0  0  0  0  0  0  0  0
   16.6362   34.5314   37.1415 H   0  0  0  0  0  0  0  0  0  0  0  0
  1  2  2  0
  1  3  1  0
  3  4  1  0
  4  5  1  0
  6  1  1  0
  7  6  1  0
  6  8  1  0
  8  9  1  0
  9 10  1  0
  9 11  2  0
 10 12  1  0
 12 13  1  0
 13 14  2  0
 15 13  1  0
 14 16  1  0
 14 17  1  0
 18 15  2  0
 16 19  1  0
 16 20  2  0
 17 21  2  0
 21 18  1  0
  4 22  2  0
  4 23  1  0
 24 23  1  0
 24 25  1  0
 25 26  1  0
 25 27  1  0
 26 28  1  0
 27 29  1  0
 27 30  1  0
 30 28  1  0
 28 31  1  0
 30 32  1  0
 33 31  1  0
 34 31  1  0
 35 33  2  0
 33 36  1  0
 37 34  2  0
 38 35  1  0
 36 39  2  0
 36 37  1  0
 40 38  2  0
 40 39  1  0
 39 41  1  0
  6 42  1  6
  7 43  1  0
  7 44  1  0
  8 45  1  0
  8 46  1  0
 12 47  1  0
 12 48  1  0
 15 49  1  0
 17 50  1  0
 18 51  1  0
 21 52  1  0
 24 53  1  0
 24 54  1  0
 25 55  1  0
 27 56  1  0
 28 57  1  0
 29 58  1  0
 30 59  1  0
 32 60  1  0
 34 61  1  0
 38 62  1  0
 41 63  1  0
 41 64  1  0
M  CHG  3   5  -1  16   1  19  -1
M  END
>  <EmbedRMS>  (533) 
0.08868819595534307

$$$$

     RDKit          3D

 64 67  0  0  0  0  0  0  0  0999 V2000
   10.2861   43.7718   33.8035 C   0  0  0  0  0  0  0  0  0  0  0  0
   11.4099   43.5868   34.3566 O   0  0  0  0  0  0  0  0  0  0  0  0
    9.3665   42.7314   33.7013 O   0  0  0  0  0  0  0  0  0  0  0  0
    9.8852   41.2344   34.2849 P   0  0  0  0  0  5  0  0  0  0  0  0
   10.3667   41.4686   35.8747 O   0  0  0  0  0  1  0  0  0  0  0  0
    9.9593   45.1114   33.2395 C   0  0  2  0  0  0  0  0  0  0  0  0
   11.0655   46.0374   33.4895 N   0  0  0  0  0  0  0  0  0  0  0  0
    8.6425   45.6595   33.8267 C   0  0  0  0  0  0  0  0  0  0  0  0
    8.7090   45.8346   35.3143 C   0  0  0  0  0  0  0  0  0  0  0  0
    8.3898   44.7530   36.1439 O   0  0  0  0  0  0  0  0  0  0  0  0
    9.0787   46.9384   35.7997 O   0  0  0  0  0  0  0  0  0  0  0  0
    8.5252   44.7655   37.5651 C   0  0  0  0  0  0  0  0  0  0  0  0
    9.8175   44.0943   37.9786 C   0  0  0  0  0  0  0  0  0  0  0  0
    9.8520   43.0023   38.8868 C   0  0  0  0  0  0  0  0  0  0  0  0
   11.0252   44.5512   37.4192 C   0  0  0  0  0  0  0  0  0  0  0  0
    8.6753   42.5587   39.5794 N   0  0  0  0  0  4  0  0  0  0  0  0
   11.0742   42.3546   39.1403 C   0  0  0  0  0  0  0  0  0  0  0  0
   12.2313   43.9072   37.6982 C   0  0  0  0  0  0  0  0  0  0  0  0
    7.8945   43.4685   40.2561 O   0  0  0  0  0  1  0  0  0  0  0  0
    8.4905   41.3395   39.7776 O   0  0  0  0  0  0  0  0  0  0  0  0
   12.2541   42.8031   38.5470 C   0  0  0  0  0  0  0  0  0  0  0  0
    8.8080   40.1914   34.2094 O   0  0  0  0  0  0  0  0  0  0  0  0
   11.2368   40.7907   33.3683 O   0  0  0  0  0  0  0  0  0  0  0  0
   10.9148   40.6883   31.9954 C   0  0  0  0  0  0  0  0  0  0  0  0
   11.5258   39.3872   31.4369 C   0  0  0  0  0  0  0  0  0  0  0  0
   12.7488   39.0893   32.0825 O   0  0  0  0  0  0  0  0  0  0  0  0
   10.6120   38.1894   31.6463 C   0  0  0  0  0  0  0  0  0  0  0  0
   12.9370   37.6828   32.0303 C   0  0  0  0  0  0  0  0  0  0  0  0
    9.6147   38.0840   30.6539 O   0  0  0  0  0  0  0  0  0  0  0  0
   11.5789   37.0137   31.7015 C   0  0  0  0  0  0  0  0  0  0  0  0
   13.4905   37.2168   33.3243 N   0  0  0  0  0  0  0  0  0  0  0  0
   11.6214   36.3255   30.4726 O   0  0  0  0  0  0  0  0  0  0  0  0
   14.4763   36.3265   33.5730 C   0  0  0  0  0  0  0  0  0  0  0  0
   13.1183   37.6308   34.5695 C   0  0  0  0  0  0  0  0  0  0  0  0
   15.2066   35.6136   32.6739 N   0  0  0  0  0  0  0  0  0  0  0  0
   14.6736   36.2270   34.9184 C   0  0  0  0  0  0  0  0  0  0  0  0
   13.8231   37.0451   35.5787 N   0  0  0  0  0  0  0  0  0  0  0  0
   16.1641   34.7593   33.1546 C   0  0  0  0  0  0  0  0  0  0  0  0
   15.6520   35.3489   35.4131 C   0  0  0  0  0  0  0  0  0  0  0  0
   16.3796   34.6308   34.5041 N   0  0  0  0  0  0  0  0  0  0  0  0
   15.9005   35.1930   36.8090 N   0  0  0  0  0  0  0  0  0  0  0  0
    9.8247   44.9951   32.1405 H   0  0  0  0  0  0  0  0  0  0  0  0
   11.8942   45.7211   32.9338 H   0  0  0  0  0  0  0  0  0  0  0  0
   10.8086   46.9731   33.0987 H   0  0  0  0  0  0  0  0  0  0  0  0
    8.4019   46.6350   33.3507 H   0  0  0  0  0  0  0  0  0  0  0  0
    7.8078   44.9678   33.5806 H   0  0  0  0  0  0  0  0  0  0  0  0
    8.4896   45.8006   37.9685 H   0  0  0  0  0  0  0  0  0  0  0  0
    7.6445   44.2302   37.9671 H   0  0  0  0  0  0  0  0  0  0  0  0
   11.0373   45.3993   36.7488 H   0  0  0  0  0  0  0  0  0  0  0  0
   11.1158   41.5139   39.8212 H   0  0  0  0  0  0  0  0  0  0  0  0
   13.1493   44.2613   37.2479 H   0  0  0  0  0  0  0  0  0  0  0  0
   13.1902   42.3019   38.7572 H   0  0  0  0  0  0  0  0  0  0  0  0
   11.3816   41.5502   31.4725 H   0  0  0  0  0  0  0  0  0  0  0  0
    9.8246   40.7174   31.7590 H   0  0  0  0  0  0  0  0  0  0  0  0
   11.7291   39.5289   30.3509 H   0  0  0  0  0  0  0  0  0  0  0  0
   10.1135   38.2720   32.6381 H   0  0  0  0  0  0  0  0  0  0  0  0
   13.6718   37.4639   31.2240 H   0  0  0  0  0  0  0  0  0  0  0  0
   10.0531   38.1097   29.7639 H   0  0  0  0  0  0  0  0  0  0  0  0
   11.2640   36.3134   32.5107 H   0  0  0  0  0  0  0  0  0  0  0  0
   12.1550   35.5036   30.6316 H   0  0  0  0  0  0  0  0  0  0  0  0
   12.3369   38.3592   34.7451 H   0  0  0  0  0  0  0  0  0  0  0  0
   16.7579   34.1789   32.4620 H   0  0  0  0  0  0  0  0  0  0  0  0
   15.3536   35.7355   37.5140 H   0  0  0  0  0  0  0  0  0  0  0  0
   16.6367   34.5315   37.1416 H   0  0  0  0  0  0  0  0  0  0  0  0
  1  2  2  0
  1  3  1  0
  3  4  1  0
  4  5  1  0
  6  1  1  0
  7  6  1  0
  6  8  1  0
  8  9  1  0
  9 10  1  0
  9 11  2  0
 10 12  1  0
 12 13  1  0
 13 14  2  0
 15 13  1  0
 14 16  1  0
 14 17  1  0
 18 15  2  0
 16 19  1  0
 16 20  2  0
 17 21  2  0
 21 18  1  0
  4 22  2  0
  4 23  1  0
 24 23  1  0
 24 25  1  0
 25 26  1  0
 25 27  1  0
 26 28  1  0
 27 29  1  0
 27 30  1  0
 30 28  1  0
 28 31  1  0
 30 32  1  0
 33 31  1  0
 34 31  1  0
 35 33  2  0
 33 36  1  0
 37 34  2  0
 38 35  1  0
 36 39  2  0
 36 37  1  0
 40 38  2  0
 40 39  1  0
 39 41  1  0
  6 42  1  6
  7 43  1  0
  7 44  1  0
  8 45  1  0
  8 46  1  0
 12 47  1  0
 12 48  1  0
 15 49  1  0
 17 50  1  0
 18 51  1  0
 21 52  1  0
 24 53  1  0
 24 54  1  0
 25 55  1  0
 27 56  1  0
 28 57  1  0
 29 58  1  0
 30 59  1  0
 32 60  1  0
 34 61  1  0
 38 62  1  0
 41 63  1  0
 41 64  1  0
M  CHG  3   5  -1  16   1  19  -1
M  END
>  <EmbedRMS>  (534) 
0.08777185890809654

$$$$

     RDKit          3D

 64 67  0  0  0  0  0  0  0  0999 V2000
   10.2864   43.7714   33.8014 C   0  0  0  0  0  0  0  0  0  0  0  0
   11.4108   43.5871   34.3538 O   0  0  0  0  0  0  0  0  0  0  0  0
    9.3666   42.7309   33.6996 O   0  0  0  0  0  0  0  0  0  0  0  0
    9.8847   41.2346   34.2857 P   0  0  0  0  0  5  0  0  0  0  0  0
   10.3680   41.4705   35.8751 O   0  0  0  0  0  1  0  0  0  0  0  0
    9.9595   45.1112   33.2395 C   0  0  2  0  0  0  0  0  0  0  0  0
   11.0645   46.0378   33.4943 N   0  0  0  0  0  0  0  0  0  0  0  0
    8.6159   45.6581   33.7751 C   0  0  0  0  0  0  0  0  0  0  0  0
    8.5555   45.6939   35.2739 C   0  0  0  0  0  0  0  0  0  0  0  0
    8.3063   44.5095   35.9712 O   0  0  0  0  0  0  0  0  0  0  0  0
    8.7603   46.7752   35.8900 O   0  0  0  0  0  0  0  0  0  0  0  0
    8.3077   44.4258   37.3929 C   0  0  0  0  0  0  0  0  0  0  0  0
    8.0900   42.9974   37.8396 C   0  0  0  0  0  0  0  0  0  0  0  0
    8.6341   42.5058   39.0566 C   0  0  0  0  0  0  0  0  0  0  0  0
    7.3215   42.1307   37.0364 C   0  0  0  0  0  0  0  0  0  0  0  0
    9.3373   43.3608   39.9748 N   0  0  0  0  0  4  0  0  0  0  0  0
    8.4742   41.1472   39.3814 C   0  0  0  0  0  0  0  0  0  0  0  0
    7.1596   40.7899   37.3867 C   0  0  0  0  0  0  0  0  0  0  0  0
   10.3451   42.8464   40.7577 O   0  0  0  0  0  1  0  0  0  0  0  0
    8.9171   44.5113   40.2157 O   0  0  0  0  0  0  0  0  0  0  0  0
    7.7456   40.2961   38.5499 C   0  0  0  0  0  0  0  0  0  0  0  0
    8.8071   40.1917   34.2114 O   0  0  0  0  0  0  0  0  0  0  0  0
   11.2360   40.7898   33.3697 O   0  0  0  0  0  0  0  0  0  0  0  0
   10.9146   40.6896   31.9967 C   0  0  0  0  0  0  0  0  0  0  0  0
   11.5266   39.3899   31.4377 C   0  0  0  0  0  0  0  0  0  0  0  0
   12.7505   39.0918   32.0840 O   0  0  0  0  0  0  0  0  0  0  0  0
   10.6120   38.1915   31.6453 C   0  0  0  0  0  0  0  0  0  0  0  0
   12.9428   37.6854   32.0296 C   0  0  0  0  0  0  0  0  0  0  0  0
    9.6069   38.0857   30.6603 O   0  0  0  0  0  0  0  0  0  0  0  0
   11.5844   37.0186   31.6880 C   0  0  0  0  0  0  0  0  0  0  0  0
   13.4898   37.2164   33.3250 N   0  0  0  0  0  0  0  0  0  0  0  0
   11.6201   36.3063   30.4693 O   0  0  0  0  0  0  0  0  0  0  0  0
   14.4758   36.3264   33.5739 C   0  0  0  0  0  0  0  0  0  0  0  0
   13.1175   37.6308   34.5700 C   0  0  0  0  0  0  0  0  0  0  0  0
   15.2065   35.6139   32.6746 N   0  0  0  0  0  0  0  0  0  0  0  0
   14.6731   36.2268   34.9191 C   0  0  0  0  0  0  0  0  0  0  0  0
   13.8224   37.0450   35.5793 N   0  0  0  0  0  0  0  0  0  0  0  0
   16.1639   34.7596   33.1551 C   0  0  0  0  0  0  0  0  0  0  0  0
   15.6517   35.3489   35.4136 C   0  0  0  0  0  0  0  0  0  0  0  0
   16.3795   34.6310   34.5046 N   0  0  0  0  0  0  0  0  0  0  0  0
   15.9006   35.1931   36.8094 N   0  0  0  0  0  0  0  0  0  0  0  0
    9.8607   44.9880   32.1386 H   0  0  0  0  0  0  0  0  0  0  0  0
   10.8691   46.9363   32.9956 H   0  0  0  0  0  0  0  0  0  0  0  0
   11.1189   46.2555   34.5161 H   0  0  0  0  0  0  0  0  0  0  0  0
    7.7873   45.0160   33.4053 H   0  0  0  0  0  0  0  0  0  0  0  0
    8.4401   46.6779   33.3685 H   0  0  0  0  0  0  0  0  0  0  0  0
    9.2913   44.7937   37.7554 H   0  0  0  0  0  0  0  0  0  0  0  0
    7.4986   45.0653   37.8058 H   0  0  0  0  0  0  0  0  0  0  0  0
    6.8604   42.4842   36.1227 H   0  0  0  0  0  0  0  0  0  0  0  0
    8.8938   40.7503   40.2970 H   0  0  0  0  0  0  0  0  0  0  0  0
    6.5831   40.1309   36.7504 H   0  0  0  0  0  0  0  0  0  0  0  0
    7.6219   39.2545   38.8169 H   0  0  0  0  0  0  0  0  0  0  0  0
    9.8245   40.7185   31.7598 H   0  0  0  0  0  0  0  0  0  0  0  0
   11.3813   41.5527   31.4755 H   0  0  0  0  0  0  0  0  0  0  0  0
   11.7313   39.5342   30.3523 H   0  0  0  0  0  0  0  0  0  0  0  0
   10.1212   38.2680   32.6414 H   0  0  0  0  0  0  0  0  0  0  0  0
   13.6881   37.4711   31.2320 H   0  0  0  0  0  0  0  0  0  0  0  0
   10.0256   38.1750   29.7657 H   0  0  0  0  0  0  0  0  0  0  0  0
   11.2796   36.3123   32.4916 H   0  0  0  0  0  0  0  0  0  0  0  0
   11.9871   36.9100   29.7715 H   0  0  0  0  0  0  0  0  0  0  0  0
   12.3364   38.3596   34.7454 H   0  0  0  0  0  0  0  0  0  0  0  0
   16.7576   34.1795   32.4622 H   0  0  0  0  0  0  0  0  0  0  0  0
   15.3532   35.7351   37.5143 H   0  0  0  0  0  0  0  0  0  0  0  0
   16.6368   34.5316   37.1418 H   0  0  0  0  0  0  0  0  0  0  0  0
  1  2  2  0
  1  3  1  0
  3  4  1  0
  4  5  1  0
  6  1  1  0
  7  6  1  0
  6  8  1  0
  8  9  1  0
  9 10  1  0
  9 11  2  0
 10 12  1  0
 12 13  1  0
 13 14  2  0
 15 13  1  0
 14 16  1  0
 14 17  1  0
 18 15  2  0
 16 19  1  0
 16 20  2  0
 17 21  2  0
 21 18  1  0
  4 22  2  0
  4 23  1  0
 24 23  1  0
 24 25  1  0
 25 26  1  0
 25 27  1  0
 26 28  1  0
 27 29  1  0
 27 30  1  0
 30 28  1  0
 28 31  1  0
 30 32  1  0
 33 31  1  0
 34 31  1  0
 35 33  2  0
 33 36  1  0
 37 34  2  0
 38 35  1  0
 36 39  2  0
 36 37  1  0
 40 38  2  0
 40 39  1  0
 39 41  1  0
  6 42  1  6
  7 43  1  0
  7 44  1  0
  8 45  1  0
  8 46  1  0
 12 47  1  0
 12 48  1  0
 15 49  1  0
 17 50  1  0
 18 51  1  0
 21 52  1  0
 24 53  1  0
 24 54  1  0
 25 55  1  0
 27 56  1  0
 28 57  1  0
 29 58  1  0
 30 59  1  0
 32 60  1  0
 34 61  1  0
 38 62  1  0
 41 63  1  0
 41 64  1  0
M  CHG  3   5  -1  16   1  19  -1
M  END
>  <EmbedRMS>  (535) 
0.08683970878547866

$$$$

     RDKit          3D

 64 67  0  0  0  0  0  0  0  0999 V2000
   10.2861   43.7720   33.8047 C   0  0  0  0  0  0  0  0  0  0  0  0
   11.4086   43.5885   34.3611 O   0  0  0  0  0  0  0  0  0  0  0  0
    9.3675   42.7309   33.6994 O   0  0  0  0  0  0  0  0  0  0  0  0
    9.8854   41.2342   34.2844 P   0  0  0  0  0  5  0  0  0  0  0  0
   10.3651   41.4702   35.8750 O   0  0  0  0  0  1  0  0  0  0  0  0
    9.9532   45.1146   33.2530 C   0  0  2  0  0  0  0  0  0  0  0  0
   11.0710   46.0334   33.4769 N   0  0  0  0  0  0  0  0  0  0  0  0
    8.6598   45.6654   33.8869 C   0  0  0  0  0  0  0  0  0  0  0  0
    8.7903   45.8645   35.3677 C   0  0  0  0  0  0  0  0  0  0  0  0
    9.3628   47.0444   35.8549 O   0  0  0  0  0  0  0  0  0  0  0  0
    8.4159   44.9552   36.1578 O   0  0  0  0  0  0  0  0  0  0  0  0
    9.5133   47.3237   37.2455 C   0  0  0  0  0  0  0  0  0  0  0  0
    8.1682   47.5570   37.8952 C   0  0  0  0  0  0  0  0  0  0  0  0
    7.2432   48.5181   37.4016 C   0  0  0  0  0  0  0  0  0  0  0  0
    7.8091   46.7630   39.0000 C   0  0  0  0  0  0  0  0  0  0  0  0
    7.5496   49.3731   36.2846 N   0  0  0  0  0  4  0  0  0  0  0  0
    5.9800   48.6261   38.0103 C   0  0  0  0  0  0  0  0  0  0  0  0
    6.5560   46.8988   39.5982 C   0  0  0  0  0  0  0  0  0  0  0  0
    6.5388   49.8215   35.4657 O   0  0  0  0  0  1  0  0  0  0  0  0
    8.6940   49.8486   36.1383 O   0  0  0  0  0  0  0  0  0  0  0  0
    5.6416   47.8250   39.1015 C   0  0  0  0  0  0  0  0  0  0  0  0
    8.8081   40.1911   34.2081 O   0  0  0  0  0  0  0  0  0  0  0  0
   11.2382   40.7904   33.3697 O   0  0  0  0  0  0  0  0  0  0  0  0
   10.9190   40.6905   31.9962 C   0  0  0  0  0  0  0  0  0  0  0  0
   11.5175   39.3823   31.4412 C   0  0  0  0  0  0  0  0  0  0  0  0
   12.7495   39.0892   32.0755 O   0  0  0  0  0  0  0  0  0  0  0  0
   10.6036   38.1899   31.6660 C   0  0  0  0  0  0  0  0  0  0  0  0
   12.9401   37.6833   32.0276 C   0  0  0  0  0  0  0  0  0  0  0  0
    9.6376   38.0785   30.6474 O   0  0  0  0  0  0  0  0  0  0  0  0
   11.5803   37.0203   31.6937 C   0  0  0  0  0  0  0  0  0  0  0  0
   13.4902   37.2177   33.3237 N   0  0  0  0  0  0  0  0  0  0  0  0
   11.6117   36.3193   30.4680 O   0  0  0  0  0  0  0  0  0  0  0  0
   14.4759   36.3271   33.5731 C   0  0  0  0  0  0  0  0  0  0  0  0
   13.1176   37.6317   34.5688 C   0  0  0  0  0  0  0  0  0  0  0  0
   15.2064   35.6141   32.6742 N   0  0  0  0  0  0  0  0  0  0  0  0
   14.6729   36.2274   34.9184 C   0  0  0  0  0  0  0  0  0  0  0  0
   13.8221   37.0457   35.5783 N   0  0  0  0  0  0  0  0  0  0  0  0
   16.1637   34.7597   33.1549 C   0  0  0  0  0  0  0  0  0  0  0  0
   15.6514   35.3493   35.4133 C   0  0  0  0  0  0  0  0  0  0  0  0
   16.3791   34.6312   34.5044 N   0  0  0  0  0  0  0  0  0  0  0  0
   15.9002   35.1935   36.8091 N   0  0  0  0  0  0  0  0  0  0  0  0
    9.7846   45.0048   32.1580 H   0  0  0  0  0  0  0  0  0  0  0  0
   11.8829   45.7130   32.8991 H   0  0  0  0  0  0  0  0  0  0  0  0
   10.8097   46.9718   33.0954 H   0  0  0  0  0  0  0  0  0  0  0  0
    7.8137   44.9747   33.6768 H   0  0  0  0  0  0  0  0  0  0  0  0
    8.4041   46.6391   33.4162 H   0  0  0  0  0  0  0  0  0  0  0  0
   10.1447   48.2266   37.3724 H   0  0  0  0  0  0  0  0  0  0  0  0
   10.0634   46.4856   37.7274 H   0  0  0  0  0  0  0  0  0  0  0  0
    8.4964   46.0250   39.3950 H   0  0  0  0  0  0  0  0  0  0  0  0
    5.2577   49.3468   37.6486 H   0  0  0  0  0  0  0  0  0  0  0  0
    6.2909   46.2790   40.4450 H   0  0  0  0  0  0  0  0  0  0  0  0
    4.6686   47.9253   39.5648 H   0  0  0  0  0  0  0  0  0  0  0  0
   11.4000   41.5454   31.4747 H   0  0  0  0  0  0  0  0  0  0  0  0
    9.8311   40.7397   31.7560 H   0  0  0  0  0  0  0  0  0  0  0  0
   11.6989   39.5091   30.3489 H   0  0  0  0  0  0  0  0  0  0  0  0
   10.1130   38.2589   32.6664 H   0  0  0  0  0  0  0  0  0  0  0  0
   13.6800   37.4627   31.2265 H   0  0  0  0  0  0  0  0  0  0  0  0
    8.8953   38.6909   30.8891 H   0  0  0  0  0  0  0  0  0  0  0  0
   11.2831   36.3060   32.4929 H   0  0  0  0  0  0  0  0  0  0  0  0
   11.8860   36.9589   29.7593 H   0  0  0  0  0  0  0  0  0  0  0  0
   12.3360   38.3600   34.7441 H   0  0  0  0  0  0  0  0  0  0  0  0
   16.7572   34.1793   32.4621 H   0  0  0  0  0  0  0  0  0  0  0  0
   16.6362   34.5318   37.1416 H   0  0  0  0  0  0  0  0  0  0  0  0
   15.3528   35.7356   37.5140 H   0  0  0  0  0  0  0  0  0  0  0  0
  1  2  2  0
  1  3  1  0
  3  4  1  0
  4  5  1  0
  6  1  1  0
  7  6  1  0
  6  8  1  0
  8  9  1  0
  9 10  1  0
  9 11  2  0
 10 12  1  0
 12 13  1  0
 13 14  2  0
 15 13  1  0
 14 16  1  0
 14 17  1  0
 18 15  2  0
 16 19  1  0
 16 20  2  0
 17 21  2  0
 21 18  1  0
  4 22  2  0
  4 23  1  0
 24 23  1  0
 24 25  1  0
 25 26  1  0
 25 27  1  0
 26 28  1  0
 27 29  1  0
 27 30  1  0
 30 28  1  0
 28 31  1  0
 30 32  1  0
 33 31  1  0
 34 31  1  0
 35 33  2  0
 33 36  1  0
 37 34  2  0
 38 35  1  0
 36 39  2  0
 36 37  1  0
 40 38  2  0
 40 39  1  0
 39 41  1  0
  6 42  1  6
  7 43  1  0
  7 44  1  0
  8 45  1  0
  8 46  1  0
 12 47  1  0
 12 48  1  0
 15 49  1  0
 17 50  1  0
 18 51  1  0
 21 52  1  0
 24 53  1  0
 24 54  1  0
 25 55  1  0
 27 56  1  0
 28 57  1  0
 29 58  1  0
 30 59  1  0
 32 60  1  0
 34 61  1  0
 38 62  1  0
 41 63  1  0
 41 64  1  0
M  CHG  3   5  -1  16   1  19  -1
M  END
>  <EmbedRMS>  (536) 
0.08832768634357924

$$$$

     RDKit          3D

 64 67  0  0  0  0  0  0  0  0999 V2000
   10.2866   43.7708   33.8013 C   0  0  0  0  0  0  0  0  0  0  0  0
   11.4111   43.5845   34.3515 O   0  0  0  0  0  0  0  0  0  0  0  0
    9.3667   42.7307   33.6996 O   0  0  0  0  0  0  0  0  0  0  0  0
    9.8851   41.2344   34.2854 P   0  0  0  0  0  5  0  0  0  0  0  0
   10.3649   41.4706   35.8758 O   0  0  0  0  0  1  0  0  0  0  0  0
    9.9559   45.1141   33.2497 C   0  0  2  0  0  0  0  0  0  0  0  0
   11.0678   46.0365   33.4866 N   0  0  0  0  0  0  0  0  0  0  0  0
    8.6480   45.6643   33.8584 C   0  0  0  0  0  0  0  0  0  0  0  0
    8.7595   45.9921   35.3217 C   0  0  0  0  0  0  0  0  0  0  0  0
    9.3018   45.0562   36.2070 O   0  0  0  0  0  0  0  0  0  0  0  0
    8.3174   47.0937   35.7482 O   0  0  0  0  0  0  0  0  0  0  0  0
    9.2930   45.2296   37.6196 C   0  0  0  0  0  0  0  0  0  0  0  0
   10.0866   44.1216   38.2662 C   0  0  0  0  0  0  0  0  0  0  0  0
   11.4720   43.9189   38.0041 C   0  0  0  0  0  0  0  0  0  0  0  0
    9.4084   43.2198   39.1082 C   0  0  0  0  0  0  0  0  0  0  0  0
   12.2320   44.7948   37.1457 N   0  0  0  0  0  4  0  0  0  0  0  0
   12.1186   42.8106   38.5856 C   0  0  0  0  0  0  0  0  0  0  0  0
   10.0749   42.1367   39.6802 C   0  0  0  0  0  0  0  0  0  0  0  0
   11.9669   46.1426   37.0888 O   0  0  0  0  0  1  0  0  0  0  0  0
   13.2489   44.3669   36.5608 O   0  0  0  0  0  0  0  0  0  0  0  0
   11.4262   41.9309   39.4173 C   0  0  0  0  0  0  0  0  0  0  0  0
    8.8080   40.1912   34.2092 O   0  0  0  0  0  0  0  0  0  0  0  0
   11.2379   40.7904   33.3706 O   0  0  0  0  0  0  0  0  0  0  0  0
   10.9187   40.6906   31.9970 C   0  0  0  0  0  0  0  0  0  0  0  0
   11.5174   39.3826   31.4416 C   0  0  0  0  0  0  0  0  0  0  0  0
   12.7494   39.0894   32.0757 O   0  0  0  0  0  0  0  0  0  0  0  0
   10.6036   38.1900   31.6661 C   0  0  0  0  0  0  0  0  0  0  0  0
   12.9401   37.6835   32.0277 C   0  0  0  0  0  0  0  0  0  0  0  0
    9.6377   38.0786   30.6475 O   0  0  0  0  0  0  0  0  0  0  0  0
   11.5804   37.0205   31.6937 C   0  0  0  0  0  0  0  0  0  0  0  0
   13.4901   37.2178   33.3238 N   0  0  0  0  0  0  0  0  0  0  0  0
   11.6118   36.3194   30.4680 O   0  0  0  0  0  0  0  0  0  0  0  0
   14.4758   36.3272   33.5732 C   0  0  0  0  0  0  0  0  0  0  0  0
   13.1176   37.6319   34.5689 C   0  0  0  0  0  0  0  0  0  0  0  0
   15.2063   35.6142   32.6742 N   0  0  0  0  0  0  0  0  0  0  0  0
   14.6729   36.2275   34.9185 C   0  0  0  0  0  0  0  0  0  0  0  0
   13.8221   37.0459   35.5784 N   0  0  0  0  0  0  0  0  0  0  0  0
   16.1636   34.7597   33.1549 C   0  0  0  0  0  0  0  0  0  0  0  0
   15.6513   35.3493   35.4133 C   0  0  0  0  0  0  0  0  0  0  0  0
   16.3791   34.6312   34.5044 N   0  0  0  0  0  0  0  0  0  0  0  0
   15.9001   35.1935   36.8091 N   0  0  0  0  0  0  0  0  0  0  0  0
    9.8045   45.0007   32.1525 H   0  0  0  0  0  0  0  0  0  0  0  0
   11.8868   45.7213   32.9160 H   0  0  0  0  0  0  0  0  0  0  0  0
   10.8055   46.9750   33.1058 H   0  0  0  0  0  0  0  0  0  0  0  0
    7.8267   44.9287   33.7197 H   0  0  0  0  0  0  0  0  0  0  0  0
    8.3556   46.5806   33.2998 H   0  0  0  0  0  0  0  0  0  0  0  0
    8.2377   45.2241   37.9701 H   0  0  0  0  0  0  0  0  0  0  0  0
    9.7123   46.2166   37.9026 H   0  0  0  0  0  0  0  0  0  0  0  0
    8.3531   43.3464   39.3168 H   0  0  0  0  0  0  0  0  0  0  0  0
   13.1704   42.6307   38.4025 H   0  0  0  0  0  0  0  0  0  0  0  0
    9.5394   41.4507   40.3239 H   0  0  0  0  0  0  0  0  0  0  0  0
   11.9401   41.0870   39.8593 H   0  0  0  0  0  0  0  0  0  0  0  0
    9.8309   40.7398   31.7569 H   0  0  0  0  0  0  0  0  0  0  0  0
   11.3997   41.5457   31.4757 H   0  0  0  0  0  0  0  0  0  0  0  0
   11.6987   39.5096   30.3493 H   0  0  0  0  0  0  0  0  0  0  0  0
   10.1129   38.2588   32.6665 H   0  0  0  0  0  0  0  0  0  0  0  0
   13.6800   37.4629   31.2266 H   0  0  0  0  0  0  0  0  0  0  0  0
    8.8954   38.6911   30.8891 H   0  0  0  0  0  0  0  0  0  0  0  0
   11.2831   36.3061   32.4930 H   0  0  0  0  0  0  0  0  0  0  0  0
   11.8859   36.9591   29.7593 H   0  0  0  0  0  0  0  0  0  0  0  0
   12.3362   38.3603   34.7443 H   0  0  0  0  0  0  0  0  0  0  0  0
   16.7572   34.1793   32.4621 H   0  0  0  0  0  0  0  0  0  0  0  0
   16.6362   34.5318   37.1416 H   0  0  0  0  0  0  0  0  0  0  0  0
   15.3529   35.7358   37.5140 H   0  0  0  0  0  0  0  0  0  0  0  0
  1  2  2  0
  1  3  1  0
  3  4  1  0
  4  5  1  0
  6  1  1  0
  7  6  1  0
  6  8  1  0
  8  9  1  0
  9 10  1  0
  9 11  2  0
 10 12  1  0
 12 13  1  0
 13 14  2  0
 15 13  1  0
 14 16  1  0
 14 17  1  0
 18 15  2  0
 16 19  1  0
 16 20  2  0
 17 21  2  0
 21 18  1  0
  4 22  2  0
  4 23  1  0
 24 23  1  0
 24 25  1  0
 25 26  1  0
 25 27  1  0
 26 28  1  0
 27 29  1  0
 27 30  1  0
 30 28  1  0
 28 31  1  0
 30 32  1  0
 33 31  1  0
 34 31  1  0
 35 33  2  0
 33 36  1  0
 37 34  2  0
 38 35  1  0
 36 39  2  0
 36 37  1  0
 40 38  2  0
 40 39  1  0
 39 41  1  0
  6 42  1  6
  7 43  1  0
  7 44  1  0
  8 45  1  0
  8 46  1  0
 12 47  1  0
 12 48  1  0
 15 49  1  0
 17 50  1  0
 18 51  1  0
 21 52  1  0
 24 53  1  0
 24 54  1  0
 25 55  1  0
 27 56  1  0
 28 57  1  0
 29 58  1  0
 30 59  1  0
 32 60  1  0
 34 61  1  0
 38 62  1  0
 41 63  1  0
 41 64  1  0
M  CHG  3   5  -1  16   1  19  -1
M  END
>  <EmbedRMS>  (537) 
0.08822766885007656

$$$$

     RDKit          3D

 64 67  0  0  0  0  0  0  0  0999 V2000
   10.2877   43.7687   33.8086 C   0  0  0  0  0  0  0  0  0  0  0  0
   11.4117   43.5793   34.3596 O   0  0  0  0  0  0  0  0  0  0  0  0
    9.3669   42.7302   33.7017 O   0  0  0  0  0  0  0  0  0  0  0  0
    9.8845   41.2325   34.2841 P   0  0  0  0  0  5  0  0  0  0  0  0
   10.3646   41.4678   35.8748 O   0  0  0  0  0  1  0  0  0  0  0  0
    9.9639   45.1115   33.2469 C   0  0  2  0  0  0  0  0  0  0  0  0
   11.0620   46.0542   33.4765 N   0  0  0  0  0  0  0  0  0  0  0  0
    8.6422   45.6680   33.8105 C   0  0  0  0  0  0  0  0  0  0  0  0
    8.6646   45.8197   35.3028 C   0  0  0  0  0  0  0  0  0  0  0  0
    9.1457   47.0045   35.8662 O   0  0  0  0  0  0  0  0  0  0  0  0
    8.2813   44.8676   36.0364 O   0  0  0  0  0  0  0  0  0  0  0  0
    9.2394   47.2052   37.2742 C   0  0  0  0  0  0  0  0  0  0  0  0
    9.7982   48.5743   37.5916 C   0  0  0  0  0  0  0  0  0  0  0  0
   10.4987   48.8278   38.8022 C   0  0  0  0  0  0  0  0  0  0  0  0
    9.5976   49.6345   36.6848 C   0  0  0  0  0  0  0  0  0  0  0  0
   10.6521   47.8201   39.8173 N   0  0  0  0  0  4  0  0  0  0  0  0
   11.0502   50.1020   39.0232 C   0  0  0  0  0  0  0  0  0  0  0  0
   10.1366   50.8974   36.9336 C   0  0  0  0  0  0  0  0  0  0  0  0
   11.7685   47.8205   40.6217 O   0  0  0  0  0  1  0  0  0  0  0  0
    9.7011   47.0668   40.1107 O   0  0  0  0  0  0  0  0  0  0  0  0
   10.8716   51.1274   38.0943 C   0  0  0  0  0  0  0  0  0  0  0  0
    8.8069   40.1899   34.2075 O   0  0  0  0  0  0  0  0  0  0  0  0
   11.2377   40.7893   33.3690 O   0  0  0  0  0  0  0  0  0  0  0  0
   10.9193   40.6893   31.9951 C   0  0  0  0  0  0  0  0  0  0  0  0
   11.5170   39.3801   31.4397 C   0  0  0  0  0  0  0  0  0  0  0  0
   12.7478   39.0861   32.0733 O   0  0  0  0  0  0  0  0  0  0  0  0
   10.6031   38.1891   31.6666 C   0  0  0  0  0  0  0  0  0  0  0  0
   12.9335   37.6796   32.0279 C   0  0  0  0  0  0  0  0  0  0  0  0
    9.6397   38.0776   30.6456 O   0  0  0  0  0  0  0  0  0  0  0  0
   11.5739   37.0154   31.7057 C   0  0  0  0  0  0  0  0  0  0  0  0
   13.4903   37.2178   33.3231 N   0  0  0  0  0  0  0  0  0  0  0  0
   11.6211   36.3376   30.4695 O   0  0  0  0  0  0  0  0  0  0  0  0
   14.4761   36.3273   33.5725 C   0  0  0  0  0  0  0  0  0  0  0  0
   13.1179   37.6317   34.5684 C   0  0  0  0  0  0  0  0  0  0  0  0
   15.2063   35.6139   32.6737 N   0  0  0  0  0  0  0  0  0  0  0  0
   14.6733   36.2277   34.9179 C   0  0  0  0  0  0  0  0  0  0  0  0
   13.8225   37.0459   35.5779 N   0  0  0  0  0  0  0  0  0  0  0  0
   16.1636   34.7594   33.1546 C   0  0  0  0  0  0  0  0  0  0  0  0
   15.6515   35.3494   35.4129 C   0  0  0  0  0  0  0  0  0  0  0  0
   16.3791   34.6311   34.5041 N   0  0  0  0  0  0  0  0  0  0  0  0
   15.9001   35.1935   36.8088 N   0  0  0  0  0  0  0  0  0  0  0  0
    9.8335   44.9916   32.1488 H   0  0  0  0  0  0  0  0  0  0  0  0
   11.9092   45.7281   32.9557 H   0  0  0  0  0  0  0  0  0  0  0  0
   11.3044   46.0962   34.4937 H   0  0  0  0  0  0  0  0  0  0  0  0
    8.4402   46.6599   33.3517 H   0  0  0  0  0  0  0  0  0  0  0  0
    7.8022   44.9989   33.5211 H   0  0  0  0  0  0  0  0  0  0  0  0
    9.9052   46.4177   37.6880 H   0  0  0  0  0  0  0  0  0  0  0  0
    8.2309   47.1125   37.7314 H   0  0  0  0  0  0  0  0  0  0  0  0
    9.0310   49.4864   35.7741 H   0  0  0  0  0  0  0  0  0  0  0  0
   11.5981   50.3110   39.9333 H   0  0  0  0  0  0  0  0  0  0  0  0
    9.9859   51.6993   36.2223 H   0  0  0  0  0  0  0  0  0  0  0  0
   11.2911   52.1072   38.2830 H   0  0  0  0  0  0  0  0  0  0  0  0
    9.8315   40.7398   31.7546 H   0  0  0  0  0  0  0  0  0  0  0  0
   11.4014   41.5437   31.4737 H   0  0  0  0  0  0  0  0  0  0  0  0
   11.6981   39.5044   30.3471 H   0  0  0  0  0  0  0  0  0  0  0  0
   10.1089   38.2630   32.6649 H   0  0  0  0  0  0  0  0  0  0  0  0
   13.6656   37.4541   31.2207 H   0  0  0  0  0  0  0  0  0  0  0  0
    8.8965   38.6899   30.8851 H   0  0  0  0  0  0  0  0  0  0  0  0
   11.2846   36.3060   32.5175 H   0  0  0  0  0  0  0  0  0  0  0  0
   10.8524   35.7094   30.4590 H   0  0  0  0  0  0  0  0  0  0  0  0
   12.3353   38.3588   34.7439 H   0  0  0  0  0  0  0  0  0  0  0  0
   16.7570   34.1788   32.4619 H   0  0  0  0  0  0  0  0  0  0  0  0
   16.6360   34.5317   37.1413 H   0  0  0  0  0  0  0  0  0  0  0  0
   15.3529   35.7359   37.5136 H   0  0  0  0  0  0  0  0  0  0  0  0
  1  2  2  0
  1  3  1  0
  3  4  1  0
  4  5  1  0
  6  1  1  0
  7  6  1  0
  6  8  1  0
  8  9  1  0
  9 10  1  0
  9 11  2  0
 10 12  1  0
 12 13  1  0
 13 14  2  0
 15 13  1  0
 14 16  1  0
 14 17  1  0
 18 15  2  0
 16 19  1  0
 16 20  2  0
 17 21  2  0
 21 18  1  0
  4 22  2  0
  4 23  1  0
 24 23  1  0
 24 25  1  0
 25 26  1  0
 25 27  1  0
 26 28  1  0
 27 29  1  0
 27 30  1  0
 30 28  1  0
 28 31  1  0
 30 32  1  0
 33 31  1  0
 34 31  1  0
 35 33  2  0
 33 36  1  0
 37 34  2  0
 38 35  1  0
 36 39  2  0
 36 37  1  0
 40 38  2  0
 40 39  1  0
 39 41  1  0
  6 42  1  6
  7 43  1  0
  7 44  1  0
  8 45  1  0
  8 46  1  0
 12 47  1  0
 12 48  1  0
 15 49  1  0
 17 50  1  0
 18 51  1  0
 21 52  1  0
 24 53  1  0
 24 54  1  0
 25 55  1  0
 27 56  1  0
 28 57  1  0
 29 58  1  0
 30 59  1  0
 32 60  1  0
 34 61  1  0
 38 62  1  0
 41 63  1  0
 41 64  1  0
M  CHG  3   5  -1  16   1  19  -1
M  END
>  <EmbedRMS>  (538) 
0.09008914639392124

$$$$

     RDKit          3D

 64 67  0  0  0  0  0  0  0  0999 V2000
   10.2817   43.7752   33.8071 C   0  0  0  0  0  0  0  0  0  0  0  0
   11.4044   43.5919   34.3638 O   0  0  0  0  0  0  0  0  0  0  0  0
    9.3727   42.7275   33.6914 O   0  0  0  0  0  0  0  0  0  0  0  0
    9.8869   41.2334   34.2837 P   0  0  0  0  0  5  0  0  0  0  0  0
   10.3644   41.4721   35.8745 O   0  0  0  0  0  1  0  0  0  0  0  0
    9.9422   45.1252   33.2667 C   0  0  2  0  0  0  0  0  0  0  0  0
   11.0808   46.0235   33.4670 N   0  0  0  0  0  0  0  0  0  0  0  0
    8.6993   45.7048   33.9780 C   0  0  0  0  0  0  0  0  0  0  0  0
    7.4308   45.0504   33.5204 C   0  0  0  0  0  0  0  0  0  0  0  0
    6.9676   43.9112   34.1829 O   0  0  0  0  0  0  0  0  0  0  0  0
    6.8130   45.5098   32.5213 O   0  0  0  0  0  0  0  0  0  0  0  0
    5.7871   43.2139   33.7992 C   0  0  0  0  0  0  0  0  0  0  0  0
    5.7063   41.9066   34.5486 C   0  0  0  0  0  0  0  0  0  0  0  0
    5.8072   41.8378   35.9656 C   0  0  0  0  0  0  0  0  0  0  0  0
    5.5733   40.7144   33.8121 C   0  0  0  0  0  0  0  0  0  0  0  0
    5.9183   43.0176   36.7827 N   0  0  0  0  0  4  0  0  0  0  0  0
    5.8153   40.5779   36.5904 C   0  0  0  0  0  0  0  0  0  0  0  0
    5.5642   39.4762   34.4551 C   0  0  0  0  0  0  0  0  0  0  0  0
    6.5945   42.9629   37.9798 O   0  0  0  0  0  1  0  0  0  0  0  0
    5.2741   44.0496   36.5049 O   0  0  0  0  0  0  0  0  0  0  0  0
    5.6922   39.4078   35.8405 C   0  0  0  0  0  0  0  0  0  0  0  0
    8.8099   40.1904   34.2083 O   0  0  0  0  0  0  0  0  0  0  0  0
   11.2383   40.7882   33.3695 O   0  0  0  0  0  0  0  0  0  0  0  0
   10.9164   40.6892   31.9964 C   0  0  0  0  0  0  0  0  0  0  0  0
   11.5271   39.3896   31.4372 C   0  0  0  0  0  0  0  0  0  0  0  0
   12.7510   39.0913   32.0833 O   0  0  0  0  0  0  0  0  0  0  0  0
   10.6120   38.1916   31.6453 C   0  0  0  0  0  0  0  0  0  0  0  0
   12.9428   37.6849   32.0294 C   0  0  0  0  0  0  0  0  0  0  0  0
    9.6067   38.0859   30.6606 O   0  0  0  0  0  0  0  0  0  0  0  0
   11.5842   37.0185   31.6880 C   0  0  0  0  0  0  0  0  0  0  0  0
   13.4898   37.2162   33.3249 N   0  0  0  0  0  0  0  0  0  0  0  0
   11.6198   36.3062   30.4693 O   0  0  0  0  0  0  0  0  0  0  0  0
   14.4758   36.3263   33.5739 C   0  0  0  0  0  0  0  0  0  0  0  0
   13.1174   37.6307   34.5698 C   0  0  0  0  0  0  0  0  0  0  0  0
   15.2065   35.6138   32.6746 N   0  0  0  0  0  0  0  0  0  0  0  0
   14.6731   36.2268   34.9191 C   0  0  0  0  0  0  0  0  0  0  0  0
   13.8223   37.0450   35.5792 N   0  0  0  0  0  0  0  0  0  0  0  0
   16.1640   34.7596   33.1551 C   0  0  0  0  0  0  0  0  0  0  0  0
   15.6517   35.3489   35.4136 C   0  0  0  0  0  0  0  0  0  0  0  0
   16.3795   34.6310   34.5046 N   0  0  0  0  0  0  0  0  0  0  0  0
   15.9006   35.1931   36.8094 N   0  0  0  0  0  0  0  0  0  0  0  0
    9.7394   45.0342   32.1750 H   0  0  0  0  0  0  0  0  0  0  0  0
   10.8417   46.9593   33.0649 H   0  0  0  0  0  0  0  0  0  0  0  0
   11.8821   45.6757   32.8899 H   0  0  0  0  0  0  0  0  0  0  0  0
    8.7992   45.5917   35.0800 H   0  0  0  0  0  0  0  0  0  0  0  0
    8.6179   46.7938   33.7683 H   0  0  0  0  0  0  0  0  0  0  0  0
    5.8131   43.0343   32.7015 H   0  0  0  0  0  0  0  0  0  0  0  0
    4.8907   43.8322   34.0155 H   0  0  0  0  0  0  0  0  0  0  0  0
    5.4917   40.7387   32.7324 H   0  0  0  0  0  0  0  0  0  0  0  0
    5.8994   40.5012   37.6669 H   0  0  0  0  0  0  0  0  0  0  0  0
    5.4683   38.5669   33.8760 H   0  0  0  0  0  0  0  0  0  0  0  0
    5.6919   38.4455   36.3360 H   0  0  0  0  0  0  0  0  0  0  0  0
    9.8262   40.7189   31.7591 H   0  0  0  0  0  0  0  0  0  0  0  0
   11.3837   41.5523   31.4757 H   0  0  0  0  0  0  0  0  0  0  0  0
   11.7316   39.5337   30.3517 H   0  0  0  0  0  0  0  0  0  0  0  0
   10.1214   38.2684   32.6415 H   0  0  0  0  0  0  0  0  0  0  0  0
   13.6880   37.4701   31.2318 H   0  0  0  0  0  0  0  0  0  0  0  0
   10.0252   38.1752   29.7658 H   0  0  0  0  0  0  0  0  0  0  0  0
   11.2793   36.3123   32.4916 H   0  0  0  0  0  0  0  0  0  0  0  0
   11.9866   36.9099   29.7714 H   0  0  0  0  0  0  0  0  0  0  0  0
   12.3363   38.3594   34.7452 H   0  0  0  0  0  0  0  0  0  0  0  0
   16.7577   34.1794   32.4622 H   0  0  0  0  0  0  0  0  0  0  0  0
   16.6368   34.5316   37.1418 H   0  0  0  0  0  0  0  0  0  0  0  0
   15.3531   35.7351   37.5143 H   0  0  0  0  0  0  0  0  0  0  0  0
  1  2  2  0
  1  3  1  0
  3  4  1  0
  4  5  1  0
  6  1  1  0
  7  6  1  0
  6  8  1  0
  8  9  1  0
  9 10  1  0
  9 11  2  0
 10 12  1  0
 12 13  1  0
 13 14  2  0
 15 13  1  0
 14 16  1  0
 14 17  1  0
 18 15  2  0
 16 19  1  0
 16 20  2  0
 17 21  2  0
 21 18  1  0
  4 22  2  0
  4 23  1  0
 24 23  1  0
 24 25  1  0
 25 26  1  0
 25 27  1  0
 26 28  1  0
 27 29  1  0
 27 30  1  0
 30 28  1  0
 28 31  1  0
 30 32  1  0
 33 31  1  0
 34 31  1  0
 35 33  2  0
 33 36  1  0
 37 34  2  0
 38 35  1  0
 36 39  2  0
 36 37  1  0
 40 38  2  0
 40 39  1  0
 39 41  1  0
  6 42  1  6
  7 43  1  0
  7 44  1  0
  8 45  1  0
  8 46  1  0
 12 47  1  0
 12 48  1  0
 15 49  1  0
 17 50  1  0
 18 51  1  0
 21 52  1  0
 24 53  1  0
 24 54  1  0
 25 55  1  0
 27 56  1  0
 28 57  1  0
 29 58  1  0
 30 59  1  0
 32 60  1  0
 34 61  1  0
 38 62  1  0
 41 63  1  0
 41 64  1  0
M  CHG  3   5  -1  16   1  19  -1
M  END
>  <EmbedRMS>  (539) 
0.0876243107453394

$$$$

     RDKit          3D

 64 67  0  0  0  0  0  0  0  0999 V2000
   10.2828   43.7755   33.8075 C   0  0  0  0  0  0  0  0  0  0  0  0
   11.4085   43.5914   34.3575 O   0  0  0  0  0  0  0  0  0  0  0  0
    9.3666   42.7319   33.7013 O   0  0  0  0  0  0  0  0  0  0  0  0
    9.8859   41.2347   34.2841 P   0  0  0  0  0  5  0  0  0  0  0  0
   10.3669   41.4696   35.8745 O   0  0  0  0  0  1  0  0  0  0  0  0
    9.9532   45.1119   33.2439 C   0  0  2  0  0  0  0  0  0  0  0  0
   11.0727   46.0267   33.4847 N   0  0  0  0  0  0  0  0  0  0  0  0
    8.6405   45.6442   33.8564 C   0  0  0  0  0  0  0  0  0  0  0  0
    8.2252   46.9368   33.2265 C   0  0  0  0  0  0  0  0  0  0  0  0
    8.5635   48.1441   33.8475 O   0  0  0  0  0  0  0  0  0  0  0  0
    7.6066   46.9277   32.1272 O   0  0  0  0  0  0  0  0  0  0  0  0
    8.1930   49.4203   33.3295 C   0  0  0  0  0  0  0  0  0  0  0  0
    6.7008   49.6344   33.4450 C   0  0  0  0  0  0  0  0  0  0  0  0
    6.0074   49.4966   34.6792 C   0  0  0  0  0  0  0  0  0  0  0  0
    5.9737   49.9398   32.2796 C   0  0  0  0  0  0  0  0  0  0  0  0
    6.6892   49.1999   35.9120 N   0  0  0  0  0  4  0  0  0  0  0  0
    4.6080   49.6357   34.6960 C   0  0  0  0  0  0  0  0  0  0  0  0
    4.5873   50.0893   32.3231 C   0  0  0  0  0  0  0  0  0  0  0  0
    6.0409   48.5001   36.9037 O   0  0  0  0  0  1  0  0  0  0  0  0
    7.8017   49.7051   36.1651 O   0  0  0  0  0  0  0  0  0  0  0  0
    3.9053   49.9329   33.5277 C   0  0  0  0  0  0  0  0  0  0  0  0
    8.8085   40.1916   34.2087 O   0  0  0  0  0  0  0  0  0  0  0  0
   11.2374   40.7909   33.3676 O   0  0  0  0  0  0  0  0  0  0  0  0
   10.9151   40.6883   31.9947 C   0  0  0  0  0  0  0  0  0  0  0  0
   11.5260   39.3871   31.4365 C   0  0  0  0  0  0  0  0  0  0  0  0
   12.7490   39.0894   32.0820 O   0  0  0  0  0  0  0  0  0  0  0  0
   10.6123   38.1893   31.6461 C   0  0  0  0  0  0  0  0  0  0  0  0
   12.9373   37.6828   32.0301 C   0  0  0  0  0  0  0  0  0  0  0  0
    9.6150   38.0838   30.6538 O   0  0  0  0  0  0  0  0  0  0  0  0
   11.5793   37.0136   31.7014 C   0  0  0  0  0  0  0  0  0  0  0  0
   13.4906   37.2170   33.3242 N   0  0  0  0  0  0  0  0  0  0  0  0
   11.6217   36.3252   30.4725 O   0  0  0  0  0  0  0  0  0  0  0  0
   14.4763   36.3266   33.5731 C   0  0  0  0  0  0  0  0  0  0  0  0
   13.1182   37.6309   34.5694 C   0  0  0  0  0  0  0  0  0  0  0  0
   15.2065   35.6137   32.6740 N   0  0  0  0  0  0  0  0  0  0  0  0
   14.6735   36.2270   34.9185 C   0  0  0  0  0  0  0  0  0  0  0  0
   13.8229   37.0451   35.5787 N   0  0  0  0  0  0  0  0  0  0  0  0
   16.1639   34.7593   33.1547 C   0  0  0  0  0  0  0  0  0  0  0  0
   15.6518   35.3489   35.4132 C   0  0  0  0  0  0  0  0  0  0  0  0
   16.3794   34.6308   34.5042 N   0  0  0  0  0  0  0  0  0  0  0  0
   15.9006   35.1931   36.8090 N   0  0  0  0  0  0  0  0  0  0  0  0
    9.8193   44.9860   32.1462 H   0  0  0  0  0  0  0  0  0  0  0  0
   11.0777   46.3253   34.4879 H   0  0  0  0  0  0  0  0  0  0  0  0
   10.9430   46.8846   32.9010 H   0  0  0  0  0  0  0  0  0  0  0  0
    8.7595   45.7901   34.9524 H   0  0  0  0  0  0  0  0  0  0  0  0
    7.8252   44.9033   33.7047 H   0  0  0  0  0  0  0  0  0  0  0  0
    8.7232   50.2138   33.8947 H   0  0  0  0  0  0  0  0  0  0  0  0
    8.5401   49.5003   32.2758 H   0  0  0  0  0  0  0  0  0  0  0  0
    6.4790   50.0512   31.3281 H   0  0  0  0  0  0  0  0  0  0  0  0
    4.0583   49.5300   35.6226 H   0  0  0  0  0  0  0  0  0  0  0  0
    4.0396   50.3204   31.4185 H   0  0  0  0  0  0  0  0  0  0  0  0
    2.8292   50.0452   33.5577 H   0  0  0  0  0  0  0  0  0  0  0  0
    9.8248   40.7177   31.7584 H   0  0  0  0  0  0  0  0  0  0  0  0
   11.3819   41.5503   31.4719 H   0  0  0  0  0  0  0  0  0  0  0  0
   11.7291   39.5286   30.3504 H   0  0  0  0  0  0  0  0  0  0  0  0
   10.1139   38.2718   32.6380 H   0  0  0  0  0  0  0  0  0  0  0  0
   13.6726   37.4637   31.2240 H   0  0  0  0  0  0  0  0  0  0  0  0
   10.0535   38.1084   29.7638 H   0  0  0  0  0  0  0  0  0  0  0  0
   11.2646   36.3134   32.5107 H   0  0  0  0  0  0  0  0  0  0  0  0
   12.1550   35.5032   30.6316 H   0  0  0  0  0  0  0  0  0  0  0  0
   12.3362   38.3587   34.7450 H   0  0  0  0  0  0  0  0  0  0  0  0
   16.7573   34.1788   32.4619 H   0  0  0  0  0  0  0  0  0  0  0  0
   16.6366   34.5314   37.1415 H   0  0  0  0  0  0  0  0  0  0  0  0
   15.3533   35.7353   37.5139 H   0  0  0  0  0  0  0  0  0  0  0  0
  1  2  2  0
  1  3  1  0
  3  4  1  0
  4  5  1  0
  6  1  1  0
  7  6  1  0
  6  8  1  0
  8  9  1  0
  9 10  1  0
  9 11  2  0
 10 12  1  0
 12 13  1  0
 13 14  2  0
 15 13  1  0
 14 16  1  0
 14 17  1  0
 18 15  2  0
 16 19  1  0
 16 20  2  0
 17 21  2  0
 21 18  1  0
  4 22  2  0
  4 23  1  0
 24 23  1  0
 24 25  1  0
 25 26  1  0
 25 27  1  0
 26 28  1  0
 27 29  1  0
 27 30  1  0
 30 28  1  0
 28 31  1  0
 30 32  1  0
 33 31  1  0
 34 31  1  0
 35 33  2  0
 33 36  1  0
 37 34  2  0
 38 35  1  0
 36 39  2  0
 36 37  1  0
 40 38  2  0
 40 39  1  0
 39 41  1  0
  6 42  1  6
  7 43  1  0
  7 44  1  0
  8 45  1  0
  8 46  1  0
 12 47  1  0
 12 48  1  0
 15 49  1  0
 17 50  1  0
 18 51  1  0
 21 52  1  0
 24 53  1  0
 24 54  1  0
 25 55  1  0
 27 56  1  0
 28 57  1  0
 29 58  1  0
 30 59  1  0
 32 60  1  0
 34 61  1  0
 38 62  1  0
 41 63  1  0
 41 64  1  0
M  CHG  3   5  -1  16   1  19  -1
M  END
>  <EmbedRMS>  (540) 
0.08763098411493085

$$$$

     RDKit          3D

 64 67  0  0  0  0  0  0  0  0999 V2000
   10.2903   43.7673   33.8039 C   0  0  0  0  0  0  0  0  0  0  0  0
   11.4136   43.5783   34.3563 O   0  0  0  0  0  0  0  0  0  0  0  0
    9.3677   42.7298   33.6999 O   0  0  0  0  0  0  0  0  0  0  0  0
    9.8836   41.2329   34.2849 P   0  0  0  0  0  5  0  0  0  0  0  0
   10.3641   41.4696   35.8753 O   0  0  0  0  0  1  0  0  0  0  0  0
    9.9626   45.1122   33.2498 C   0  0  2  0  0  0  0  0  0  0  0  0
   11.0599   46.0553   33.4797 N   0  0  0  0  0  0  0  0  0  0  0  0
    8.6430   45.6643   33.8237 C   0  0  0  0  0  0  0  0  0  0  0  0
    8.6786   45.8366   35.3148 C   0  0  0  0  0  0  0  0  0  0  0  0
    8.7314   44.7056   36.1368 O   0  0  0  0  0  0  0  0  0  0  0  0
    8.6669   46.9950   35.8136 O   0  0  0  0  0  0  0  0  0  0  0  0
    8.6746   44.7666   37.5595 C   0  0  0  0  0  0  0  0  0  0  0  0
    7.2783   45.1149   38.0187 C   0  0  0  0  0  0  0  0  0  0  0  0
    6.1372   44.3755   37.6009 C   0  0  0  0  0  0  0  0  0  0  0  0
    7.1039   46.2339   38.8535 C   0  0  0  0  0  0  0  0  0  0  0  0
    6.2440   43.2136   36.7571 N   0  0  0  0  0  4  0  0  0  0  0  0
    4.8604   44.8027   38.0068 C   0  0  0  0  0  0  0  0  0  0  0  0
    5.8283   46.6297   39.2571 C   0  0  0  0  0  0  0  0  0  0  0  0
    5.2189   42.8936   35.8967 O   0  0  0  0  0  1  0  0  0  0  0  0
    7.1784   42.3997   36.9038 O   0  0  0  0  0  0  0  0  0  0  0  0
    4.7087   45.9184   38.8310 C   0  0  0  0  0  0  0  0  0  0  0  0
    8.8055   40.1909   34.2094 O   0  0  0  0  0  0  0  0  0  0  0  0
   11.2356   40.7882   33.3693 O   0  0  0  0  0  0  0  0  0  0  0  0
   10.9149   40.6879   31.9959 C   0  0  0  0  0  0  0  0  0  0  0  0
   11.5259   39.3872   31.4367 C   0  0  0  0  0  0  0  0  0  0  0  0
   12.7491   39.0893   32.0819 O   0  0  0  0  0  0  0  0  0  0  0  0
   10.6122   38.1892   31.6462 C   0  0  0  0  0  0  0  0  0  0  0  0
   12.9373   37.6827   32.0301 C   0  0  0  0  0  0  0  0  0  0  0  0
    9.6150   38.0838   30.6538 O   0  0  0  0  0  0  0  0  0  0  0  0
   11.5793   37.0136   31.7014 C   0  0  0  0  0  0  0  0  0  0  0  0
   13.4906   37.2170   33.3242 N   0  0  0  0  0  0  0  0  0  0  0  0
   11.6217   36.3253   30.4725 O   0  0  0  0  0  0  0  0  0  0  0  0
   14.4763   36.3266   33.5731 C   0  0  0  0  0  0  0  0  0  0  0  0
   13.1181   37.6308   34.5694 C   0  0  0  0  0  0  0  0  0  0  0  0
   15.2065   35.6137   32.6740 N   0  0  0  0  0  0  0  0  0  0  0  0
   14.6735   36.2270   34.9185 C   0  0  0  0  0  0  0  0  0  0  0  0
   13.8229   37.0451   35.5787 N   0  0  0  0  0  0  0  0  0  0  0  0
   16.1639   34.7593   33.1547 C   0  0  0  0  0  0  0  0  0  0  0  0
   15.6519   35.3489   35.4132 C   0  0  0  0  0  0  0  0  0  0  0  0
   16.3794   34.6308   34.5042 N   0  0  0  0  0  0  0  0  0  0  0  0
   15.9006   35.1931   36.8090 N   0  0  0  0  0  0  0  0  0  0  0  0
    9.8273   44.9971   32.1519 H   0  0  0  0  0  0  0  0  0  0  0  0
   11.9110   45.7255   32.9676 H   0  0  0  0  0  0  0  0  0  0  0  0
   11.2923   46.1052   34.4991 H   0  0  0  0  0  0  0  0  0  0  0  0
    8.4198   46.6410   33.3409 H   0  0  0  0  0  0  0  0  0  0  0  0
    7.8083   44.9768   33.5668 H   0  0  0  0  0  0  0  0  0  0  0  0
    9.4268   45.4989   37.9270 H   0  0  0  0  0  0  0  0  0  0  0  0
    8.9643   43.7819   37.9800 H   0  0  0  0  0  0  0  0  0  0  0  0
    7.9574   46.8120   39.1856 H   0  0  0  0  0  0  0  0  0  0  0  0
    3.9770   44.2589   37.6969 H   0  0  0  0  0  0  0  0  0  0  0  0
    5.7075   47.4946   39.8966 H   0  0  0  0  0  0  0  0  0  0  0  0
    3.7200   46.2305   39.1421 H   0  0  0  0  0  0  0  0  0  0  0  0
    9.8249   40.7180   31.7585 H   0  0  0  0  0  0  0  0  0  0  0  0
   11.3827   41.5505   31.4748 H   0  0  0  0  0  0  0  0  0  0  0  0
   11.7287   39.5292   30.3507 H   0  0  0  0  0  0  0  0  0  0  0  0
   10.1137   38.2716   32.6380 H   0  0  0  0  0  0  0  0  0  0  0  0
   13.6725   37.4637   31.2240 H   0  0  0  0  0  0  0  0  0  0  0  0
   10.0536   38.1086   29.7639 H   0  0  0  0  0  0  0  0  0  0  0  0
   11.2646   36.3134   32.5107 H   0  0  0  0  0  0  0  0  0  0  0  0
   12.1550   35.5033   30.6315 H   0  0  0  0  0  0  0  0  0  0  0  0
   12.3362   38.3586   34.7451 H   0  0  0  0  0  0  0  0  0  0  0  0
   16.7573   34.1788   32.4619 H   0  0  0  0  0  0  0  0  0  0  0  0
   16.6366   34.5314   37.1415 H   0  0  0  0  0  0  0  0  0  0  0  0
   15.3533   35.7353   37.5139 H   0  0  0  0  0  0  0  0  0  0  0  0
  1  2  2  0
  1  3  1  0
  3  4  1  0
  4  5  1  0
  6  1  1  0
  7  6  1  0
  6  8  1  0
  8  9  1  0
  9 10  1  0
  9 11  2  0
 10 12  1  0
 12 13  1  0
 13 14  2  0
 15 13  1  0
 14 16  1  0
 14 17  1  0
 18 15  2  0
 16 19  1  0
 16 20  2  0
 17 21  2  0
 21 18  1  0
  4 22  2  0
  4 23  1  0
 24 23  1  0
 24 25  1  0
 25 26  1  0
 25 27  1  0
 26 28  1  0
 27 29  1  0
 27 30  1  0
 30 28  1  0
 28 31  1  0
 30 32  1  0
 33 31  1  0
 34 31  1  0
 35 33  2  0
 33 36  1  0
 37 34  2  0
 38 35  1  0
 36 39  2  0
 36 37  1  0
 40 38  2  0
 40 39  1  0
 39 41  1  0
  6 42  1  6
  7 43  1  0
  7 44  1  0
  8 45  1  0
  8 46  1  0
 12 47  1  0
 12 48  1  0
 15 49  1  0
 17 50  1  0
 18 51  1  0
 21 52  1  0
 24 53  1  0
 24 54  1  0
 25 55  1  0
 27 56  1  0
 28 57  1  0
 29 58  1  0
 30 59  1  0
 32 60  1  0
 34 61  1  0
 38 62  1  0
 41 63  1  0
 41 64  1  0
M  CHG  3   5  -1  16   1  19  -1
M  END
>  <EmbedRMS>  (541) 
0.08862970520746377

$$$$

     RDKit          3D

 64 67  0  0  0  0  0  0  0  0999 V2000
   10.2866   43.7710   33.8023 C   0  0  0  0  0  0  0  0  0  0  0  0
   11.4099   43.5865   34.3570 O   0  0  0  0  0  0  0  0  0  0  0  0
    9.3667   42.7310   33.7001 O   0  0  0  0  0  0  0  0  0  0  0  0
    9.8849   41.2344   34.2848 P   0  0  0  0  0  5  0  0  0  0  0  0
   10.3671   41.4699   35.8748 O   0  0  0  0  0  1  0  0  0  0  0  0
    9.9573   45.1130   33.2463 C   0  0  2  0  0  0  0  0  0  0  0  0
   11.0669   46.0375   33.4853 N   0  0  0  0  0  0  0  0  0  0  0  0
    8.6445   45.6636   33.8456 C   0  0  0  0  0  0  0  0  0  0  0  0
    8.7277   45.9963   35.3106 C   0  0  0  0  0  0  0  0  0  0  0  0
    9.5921   45.2845   36.1514 O   0  0  0  0  0  0  0  0  0  0  0  0
    7.9607   46.8778   35.7851 O   0  0  0  0  0  0  0  0  0  0  0  0
    9.5824   45.4085   37.5725 C   0  0  0  0  0  0  0  0  0  0  0  0
    8.3630   44.7451   38.1785 C   0  0  0  0  0  0  0  0  0  0  0  0
    7.7893   45.2058   39.3937 C   0  0  0  0  0  0  0  0  0  0  0  0
    7.7979   43.6237   37.5388 C   0  0  0  0  0  0  0  0  0  0  0  0
    8.3777   46.2749   40.1543 N   0  0  0  0  0  4  0  0  0  0  0  0
    6.6207   44.5923   39.8779 C   0  0  0  0  0  0  0  0  0  0  0  0
    6.6495   43.0162   38.0473 C   0  0  0  0  0  0  0  0  0  0  0  0
    7.5750   47.1146   40.8917 O   0  0  0  0  0  1  0  0  0  0  0  0
    9.6137   46.3254   40.3211 O   0  0  0  0  0  0  0  0  0  0  0  0
    6.0550   43.5071   39.2076 C   0  0  0  0  0  0  0  0  0  0  0  0
    8.8073   40.1916   34.2099 O   0  0  0  0  0  0  0  0  0  0  0  0
   11.2362   40.7906   33.3677 O   0  0  0  0  0  0  0  0  0  0  0  0
   10.9131   40.6860   31.9951 C   0  0  0  0  0  0  0  0  0  0  0  0
   11.5167   39.3798   31.4411 C   0  0  0  0  0  0  0  0  0  0  0  0
   12.7486   39.0887   32.0764 O   0  0  0  0  0  0  0  0  0  0  0  0
   10.6050   38.1876   31.6660 C   0  0  0  0  0  0  0  0  0  0  0  0
   12.9411   37.6829   32.0278 C   0  0  0  0  0  0  0  0  0  0  0  0
    9.6358   38.0930   30.6503 O   0  0  0  0  0  0  0  0  0  0  0  0
   11.5827   37.0180   31.6937 C   0  0  0  0  0  0  0  0  0  0  0  0
   13.4909   37.2177   33.3239 N   0  0  0  0  0  0  0  0  0  0  0  0
   11.6141   36.3180   30.4675 O   0  0  0  0  0  0  0  0  0  0  0  0
   14.4762   36.3270   33.5733 C   0  0  0  0  0  0  0  0  0  0  0  0
   13.1179   37.6317   34.5689 C   0  0  0  0  0  0  0  0  0  0  0  0
   15.2067   35.6140   32.6743 N   0  0  0  0  0  0  0  0  0  0  0  0
   14.6731   36.2273   34.9186 C   0  0  0  0  0  0  0  0  0  0  0  0
   13.8223   37.0456   35.5785 N   0  0  0  0  0  0  0  0  0  0  0  0
   16.1639   34.7595   33.1550 C   0  0  0  0  0  0  0  0  0  0  0  0
   15.6515   35.3491   35.4134 C   0  0  0  0  0  0  0  0  0  0  0  0
   16.3792   34.6310   34.5045 N   0  0  0  0  0  0  0  0  0  0  0  0
   15.9002   35.1933   36.8092 N   0  0  0  0  0  0  0  0  0  0  0  0
    9.8116   44.9965   32.1486 H   0  0  0  0  0  0  0  0  0  0  0  0
   10.8045   46.9749   33.1022 H   0  0  0  0  0  0  0  0  0  0  0  0
   11.8880   45.7226   32.9176 H   0  0  0  0  0  0  0  0  0  0  0  0
    7.8250   44.9280   33.6955 H   0  0  0  0  0  0  0  0  0  0  0  0
    8.3595   46.5817   33.2865 H   0  0  0  0  0  0  0  0  0  0  0  0
    9.6281   46.4875   37.8321 H   0  0  0  0  0  0  0  0  0  0  0  0
   10.4901   44.9143   37.9769 H   0  0  0  0  0  0  0  0  0  0  0  0
    8.2360   43.2235   36.6333 H   0  0  0  0  0  0  0  0  0  0  0  0
    6.1612   44.9376   40.7953 H   0  0  0  0  0  0  0  0  0  0  0  0
    6.2178   42.1644   37.5376 H   0  0  0  0  0  0  0  0  0  0  0  0
    5.1621   43.0360   39.5981 H   0  0  0  0  0  0  0  0  0  0  0  0
   11.3849   41.5435   31.4694 H   0  0  0  0  0  0  0  0  0  0  0  0
    9.8230   40.7208   31.7587 H   0  0  0  0  0  0  0  0  0  0  0  0
   11.6991   39.5068   30.3490 H   0  0  0  0  0  0  0  0  0  0  0  0
   10.1119   38.2721   32.6632 H   0  0  0  0  0  0  0  0  0  0  0  0
   13.6816   37.4634   31.2269 H   0  0  0  0  0  0  0  0  0  0  0  0
    9.0036   37.3828   30.9348 H   0  0  0  0  0  0  0  0  0  0  0  0
   11.2847   36.3041   32.4928 H   0  0  0  0  0  0  0  0  0  0  0  0
   11.8850   36.9591   29.7589 H   0  0  0  0  0  0  0  0  0  0  0  0
   12.3363   38.3599   34.7441 H   0  0  0  0  0  0  0  0  0  0  0  0
   16.7574   34.1790   32.4623 H   0  0  0  0  0  0  0  0  0  0  0  0
   16.6363   34.5317   37.1418 H   0  0  0  0  0  0  0  0  0  0  0  0
   15.3529   35.7355   37.5141 H   0  0  0  0  0  0  0  0  0  0  0  0
  1  2  2  0
  1  3  1  0
  3  4  1  0
  4  5  1  0
  6  1  1  0
  7  6  1  0
  6  8  1  0
  8  9  1  0
  9 10  1  0
  9 11  2  0
 10 12  1  0
 12 13  1  0
 13 14  2  0
 15 13  1  0
 14 16  1  0
 14 17  1  0
 18 15  2  0
 16 19  1  0
 16 20  2  0
 17 21  2  0
 21 18  1  0
  4 22  2  0
  4 23  1  0
 24 23  1  0
 24 25  1  0
 25 26  1  0
 25 27  1  0
 26 28  1  0
 27 29  1  0
 27 30  1  0
 30 28  1  0
 28 31  1  0
 30 32  1  0
 33 31  1  0
 34 31  1  0
 35 33  2  0
 33 36  1  0
 37 34  2  0
 38 35  1  0
 36 39  2  0
 36 37  1  0
 40 38  2  0
 40 39  1  0
 39 41  1  0
  6 42  1  6
  7 43  1  0
  7 44  1  0
  8 45  1  0
  8 46  1  0
 12 47  1  0
 12 48  1  0
 15 49  1  0
 17 50  1  0
 18 51  1  0
 21 52  1  0
 24 53  1  0
 24 54  1  0
 25 55  1  0
 27 56  1  0
 28 57  1  0
 29 58  1  0
 30 59  1  0
 32 60  1  0
 34 61  1  0
 38 62  1  0
 41 63  1  0
 41 64  1  0
M  CHG  3   5  -1  16   1  19  -1
M  END
>  <EmbedRMS>  (542) 
0.08779739706132852

$$$$

     RDKit          3D

 64 67  0  0  0  0  0  0  0  0999 V2000
   10.2847   43.7740   33.8066 C   0  0  0  0  0  0  0  0  0  0  0  0
   11.4069   43.5900   34.3638 O   0  0  0  0  0  0  0  0  0  0  0  0
    9.3681   42.7310   33.6988 O   0  0  0  0  0  0  0  0  0  0  0  0
    9.8860   41.2342   34.2839 P   0  0  0  0  0  5  0  0  0  0  0  0
   10.3655   41.4698   35.8747 O   0  0  0  0  0  1  0  0  0  0  0  0
    9.9493   45.1168   33.2553 C   0  0  2  0  0  0  0  0  0  0  0  0
   11.0750   46.0281   33.4728 N   0  0  0  0  0  0  0  0  0  0  0  0
    8.6782   45.6532   33.9442 C   0  0  0  0  0  0  0  0  0  0  0  0
    8.1806   46.9235   33.2984 C   0  0  0  0  0  0  0  0  0  0  0  0
    8.2822   48.1819   33.9082 O   0  0  0  0  0  0  0  0  0  0  0  0
    7.6613   46.8535   32.1534 O   0  0  0  0  0  0  0  0  0  0  0  0
    8.8349   48.4121   35.2009 C   0  0  0  0  0  0  0  0  0  0  0  0
    8.7495   49.8808   35.5282 C   0  0  0  0  0  0  0  0  0  0  0  0
    9.7477   50.8082   35.1258 C   0  0  0  0  0  0  0  0  0  0  0  0
    7.6389   50.3413   36.2587 C   0  0  0  0  0  0  0  0  0  0  0  0
   10.8766   50.4137   34.3270 N   0  0  0  0  0  4  0  0  0  0  0  0
    9.6320   52.1528   35.5208 C   0  0  0  0  0  0  0  0  0  0  0  0
    7.5340   51.6839   36.6243 C   0  0  0  0  0  0  0  0  0  0  0  0
   12.0782   51.0696   34.4657 O   0  0  0  0  0  1  0  0  0  0  0  0
   10.7328   49.6201   33.3750 O   0  0  0  0  0  0  0  0  0  0  0  0
    8.5327   52.5862   36.2633 C   0  0  0  0  0  0  0  0  0  0  0  0
    8.8085   40.1912   34.2076 O   0  0  0  0  0  0  0  0  0  0  0  0
   11.2386   40.7905   33.3694 O   0  0  0  0  0  0  0  0  0  0  0  0
   10.9192   40.6905   31.9959 C   0  0  0  0  0  0  0  0  0  0  0  0
   11.5177   39.3823   31.4410 C   0  0  0  0  0  0  0  0  0  0  0  0
   12.7496   39.0891   32.0754 O   0  0  0  0  0  0  0  0  0  0  0  0
   10.6037   38.1899   31.6659 C   0  0  0  0  0  0  0  0  0  0  0  0
   12.9401   37.6832   32.0276 C   0  0  0  0  0  0  0  0  0  0  0  0
    9.6377   38.0785   30.6474 O   0  0  0  0  0  0  0  0  0  0  0  0
   11.5803   37.0203   31.6937 C   0  0  0  0  0  0  0  0  0  0  0  0
   13.4902   37.2177   33.3237 N   0  0  0  0  0  0  0  0  0  0  0  0
   11.6117   36.3192   30.4680 O   0  0  0  0  0  0  0  0  0  0  0  0
   14.4759   36.3271   33.5731 C   0  0  0  0  0  0  0  0  0  0  0  0
   13.1176   37.6317   34.5688 C   0  0  0  0  0  0  0  0  0  0  0  0
   15.2064   35.6141   32.6742 N   0  0  0  0  0  0  0  0  0  0  0  0
   14.6729   36.2274   34.9184 C   0  0  0  0  0  0  0  0  0  0  0  0
   13.8221   37.0457   35.5783 N   0  0  0  0  0  0  0  0  0  0  0  0
   16.1637   34.7596   33.1549 C   0  0  0  0  0  0  0  0  0  0  0  0
   15.6514   35.3493   35.4133 C   0  0  0  0  0  0  0  0  0  0  0  0
   16.3791   34.6312   34.5044 N   0  0  0  0  0  0  0  0  0  0  0  0
   15.9001   35.1935   36.8091 N   0  0  0  0  0  0  0  0  0  0  0  0
    9.7634   45.0055   32.1629 H   0  0  0  0  0  0  0  0  0  0  0  0
   10.8482   46.9470   33.0303 H   0  0  0  0  0  0  0  0  0  0  0  0
   11.8992   45.6701   32.9361 H   0  0  0  0  0  0  0  0  0  0  0  0
    7.8650   44.8991   33.8614 H   0  0  0  0  0  0  0  0  0  0  0  0
    8.8720   45.7916   35.0273 H   0  0  0  0  0  0  0  0  0  0  0  0
    8.2677   47.8259   35.9567 H   0  0  0  0  0  0  0  0  0  0  0  0
    9.8902   48.0678   35.2379 H   0  0  0  0  0  0  0  0  0  0  0  0
    6.8555   49.6555   36.5577 H   0  0  0  0  0  0  0  0  0  0  0  0
   10.3857   52.8746   35.2327 H   0  0  0  0  0  0  0  0  0  0  0  0
    6.6785   52.0242   37.1935 H   0  0  0  0  0  0  0  0  0  0  0  0
    8.4509   53.6263   36.5514 H   0  0  0  0  0  0  0  0  0  0  0  0
   11.4003   41.5453   31.4743 H   0  0  0  0  0  0  0  0  0  0  0  0
    9.8313   40.7397   31.7557 H   0  0  0  0  0  0  0  0  0  0  0  0
   11.6991   39.5089   30.3487 H   0  0  0  0  0  0  0  0  0  0  0  0
   10.1131   38.2590   32.6664 H   0  0  0  0  0  0  0  0  0  0  0  0
   13.6800   37.4625   31.2265 H   0  0  0  0  0  0  0  0  0  0  0  0
    8.8953   38.6909   30.8891 H   0  0  0  0  0  0  0  0  0  0  0  0
   11.2830   36.3060   32.4929 H   0  0  0  0  0  0  0  0  0  0  0  0
   11.8859   36.9588   29.7593 H   0  0  0  0  0  0  0  0  0  0  0  0
   12.3360   38.3600   34.7441 H   0  0  0  0  0  0  0  0  0  0  0  0
   16.7572   34.1793   32.4621 H   0  0  0  0  0  0  0  0  0  0  0  0
   16.6362   34.5318   37.1416 H   0  0  0  0  0  0  0  0  0  0  0  0
   15.3528   35.7357   37.5140 H   0  0  0  0  0  0  0  0  0  0  0  0
  1  2  2  0
  1  3  1  0
  3  4  1  0
  4  5  1  0
  6  1  1  0
  7  6  1  0
  6  8  1  0
  8  9  1  0
  9 10  1  0
  9 11  2  0
 10 12  1  0
 12 13  1  0
 13 14  2  0
 15 13  1  0
 14 16  1  0
 14 17  1  0
 18 15  2  0
 16 19  1  0
 16 20  2  0
 17 21  2  0
 21 18  1  0
  4 22  2  0
  4 23  1  0
 24 23  1  0
 24 25  1  0
 25 26  1  0
 25 27  1  0
 26 28  1  0
 27 29  1  0
 27 30  1  0
 30 28  1  0
 28 31  1  0
 30 32  1  0
 33 31  1  0
 34 31  1  0
 35 33  2  0
 33 36  1  0
 37 34  2  0
 38 35  1  0
 36 39  2  0
 36 37  1  0
 40 38  2  0
 40 39  1  0
 39 41  1  0
  6 42  1  6
  7 43  1  0
  7 44  1  0
  8 45  1  0
  8 46  1  0
 12 47  1  0
 12 48  1  0
 15 49  1  0
 17 50  1  0
 18 51  1  0
 21 52  1  0
 24 53  1  0
 24 54  1  0
 25 55  1  0
 27 56  1  0
 28 57  1  0
 29 58  1  0
 30 59  1  0
 32 60  1  0
 34 61  1  0
 38 62  1  0
 41 63  1  0
 41 64  1  0
M  CHG  3   5  -1  16   1  19  -1
M  END
>  <EmbedRMS>  (543) 
0.0884186522690946

$$$$

     RDKit          3D

 64 67  0  0  0  0  0  0  0  0999 V2000
   10.2829   43.7754   33.8079 C   0  0  0  0  0  0  0  0  0  0  0  0
   11.4085   43.5914   34.3580 O   0  0  0  0  0  0  0  0  0  0  0  0
    9.3665   42.7320   33.7017 O   0  0  0  0  0  0  0  0  0  0  0  0
    9.8860   41.2347   34.2842 P   0  0  0  0  0  5  0  0  0  0  0  0
   10.3669   41.4695   35.8746 O   0  0  0  0  0  1  0  0  0  0  0  0
    9.9542   45.1108   33.2425 C   0  0  2  0  0  0  0  0  0  0  0  0
   11.0722   46.0272   33.4849 N   0  0  0  0  0  0  0  0  0  0  0  0
    8.6381   45.6431   33.8487 C   0  0  0  0  0  0  0  0  0  0  0  0
    8.2479   46.9483   33.2300 C   0  0  0  0  0  0  0  0  0  0  0  0
    7.8509   46.9776   31.8892 O   0  0  0  0  0  0  0  0  0  0  0  0
    8.3140   48.0095   33.9081 O   0  0  0  0  0  0  0  0  0  0  0  0
    7.7238   48.1800   31.1340 C   0  0  0  0  0  0  0  0  0  0  0  0
    9.0868   48.7615   30.8403 C   0  0  0  0  0  0  0  0  0  0  0  0
    9.9353   48.2373   29.8259 C   0  0  0  0  0  0  0  0  0  0  0  0
    9.5265   49.8583   31.6040 C   0  0  0  0  0  0  0  0  0  0  0  0
    9.5563   47.1107   29.0130 N   0  0  0  0  0  4  0  0  0  0  0  0
   11.1792   48.8511   29.5923 C   0  0  0  0  0  0  0  0  0  0  0  0
   10.7712   50.4408   31.3649 C   0  0  0  0  0  0  0  0  0  0  0  0
   10.0442   46.9951   27.7315 O   0  0  0  0  0  1  0  0  0  0  0  0
    8.9275   46.1502   29.5015 O   0  0  0  0  0  0  0  0  0  0  0  0
   11.5943   49.9406   30.3588 C   0  0  0  0  0  0  0  0  0  0  0  0
    8.8085   40.1916   34.2086 O   0  0  0  0  0  0  0  0  0  0  0  0
   11.2376   40.7909   33.3679 O   0  0  0  0  0  0  0  0  0  0  0  0
   10.9159   40.6891   31.9949 C   0  0  0  0  0  0  0  0  0  0  0  0
   11.5251   39.3873   31.4364 C   0  0  0  0  0  0  0  0  0  0  0  0
   12.7486   39.0880   32.0804 O   0  0  0  0  0  0  0  0  0  0  0  0
   10.6100   38.1910   31.6470 C   0  0  0  0  0  0  0  0  0  0  0  0
   12.9348   37.6808   32.0292 C   0  0  0  0  0  0  0  0  0  0  0  0
    9.6126   38.0875   30.6547 O   0  0  0  0  0  0  0  0  0  0  0  0
   11.5766   37.0134   31.7026 C   0  0  0  0  0  0  0  0  0  0  0  0
   13.4901   37.2165   33.3236 N   0  0  0  0  0  0  0  0  0  0  0  0
   11.6321   36.3231   30.4741 O   0  0  0  0  0  0  0  0  0  0  0  0
   14.4763   36.3266   33.5727 C   0  0  0  0  0  0  0  0  0  0  0  0
   13.1179   37.6307   34.5689 C   0  0  0  0  0  0  0  0  0  0  0  0
   15.2065   35.6135   32.6738 N   0  0  0  0  0  0  0  0  0  0  0  0
   14.6736   36.2272   34.9182 C   0  0  0  0  0  0  0  0  0  0  0  0
   13.8228   37.0453   35.5783 N   0  0  0  0  0  0  0  0  0  0  0  0
   16.1640   34.7593   33.1547 C   0  0  0  0  0  0  0  0  0  0  0  0
   15.6519   35.3491   35.4130 C   0  0  0  0  0  0  0  0  0  0  0  0
   16.3795   34.6309   34.5042 N   0  0  0  0  0  0  0  0  0  0  0  0
   15.9004   35.1933   36.8089 N   0  0  0  0  0  0  0  0  0  0  0  0
    9.8254   44.9829   32.1444 H   0  0  0  0  0  0  0  0  0  0  0  0
   11.0694   46.3328   34.4860 H   0  0  0  0  0  0  0  0  0  0  0  0
   10.9468   46.8813   32.8941 H   0  0  0  0  0  0  0  0  0  0  0  0
    8.7423   45.7598   34.9504 H   0  0  0  0  0  0  0  0  0  0  0  0
    7.8177   44.9168   33.6618 H   0  0  0  0  0  0  0  0  0  0  0  0
    7.2002   47.9573   30.1808 H   0  0  0  0  0  0  0  0  0  0  0  0
    7.0807   48.9034   31.6820 H   0  0  0  0  0  0  0  0  0  0  0  0
    8.9004   50.2708   32.3855 H   0  0  0  0  0  0  0  0  0  0  0  0
   11.8406   48.4729   28.8232 H   0  0  0  0  0  0  0  0  0  0  0  0
   11.0963   51.2852   31.9589 H   0  0  0  0  0  0  0  0  0  0  0  0
   12.5585   50.3962   30.1732 H   0  0  0  0  0  0  0  0  0  0  0  0
    9.8258   40.7204   31.7580 H   0  0  0  0  0  0  0  0  0  0  0  0
   11.3841   41.5507   31.4725 H   0  0  0  0  0  0  0  0  0  0  0  0
   11.7273   39.5286   30.3502 H   0  0  0  0  0  0  0  0  0  0  0  0
   10.1122   38.2732   32.6390 H   0  0  0  0  0  0  0  0  0  0  0  0
   13.6685   37.4592   31.2224 H   0  0  0  0  0  0  0  0  0  0  0  0
   10.0513   38.1111   29.7648 H   0  0  0  0  0  0  0  0  0  0  0  0
   11.2801   36.3129   32.5195 H   0  0  0  0  0  0  0  0  0  0  0  0
   10.8625   35.6961   30.4645 H   0  0  0  0  0  0  0  0  0  0  0  0
   12.3356   38.3581   34.7445 H   0  0  0  0  0  0  0  0  0  0  0  0
   16.7575   34.1788   32.4619 H   0  0  0  0  0  0  0  0  0  0  0  0
   15.3531   35.7355   37.5138 H   0  0  0  0  0  0  0  0  0  0  0  0
   16.6364   34.5315   37.1415 H   0  0  0  0  0  0  0  0  0  0  0  0
  1  2  2  0
  1  3  1  0
  3  4  1  0
  4  5  1  0
  6  1  1  0
  7  6  1  0
  6  8  1  0
  8  9  1  0
  9 10  1  0
  9 11  2  0
 10 12  1  0
 12 13  1  0
 13 14  2  0
 15 13  1  0
 14 16  1  0
 14 17  1  0
 18 15  2  0
 16 19  1  0
 16 20  2  0
 17 21  2  0
 21 18  1  0
  4 22  2  0
  4 23  1  0
 24 23  1  0
 24 25  1  0
 25 26  1  0
 25 27  1  0
 26 28  1  0
 27 29  1  0
 27 30  1  0
 30 28  1  0
 28 31  1  0
 30 32  1  0
 33 31  1  0
 34 31  1  0
 35 33  2  0
 33 36  1  0
 37 34  2  0
 38 35  1  0
 36 39  2  0
 36 37  1  0
 40 38  2  0
 40 39  1  0
 39 41  1  0
  6 42  1  6
  7 43  1  0
  7 44  1  0
  8 45  1  0
  8 46  1  0
 12 47  1  0
 12 48  1  0
 15 49  1  0
 17 50  1  0
 18 51  1  0
 21 52  1  0
 24 53  1  0
 24 54  1  0
 25 55  1  0
 27 56  1  0
 28 57  1  0
 29 58  1  0
 30 59  1  0
 32 60  1  0
 34 61  1  0
 38 62  1  0
 41 63  1  0
 41 64  1  0
M  CHG  3   5  -1  16   1  19  -1
M  END
>  <EmbedRMS>  (544) 
0.08782252647145254

$$$$

     RDKit          3D

 64 67  0  0  0  0  0  0  0  0999 V2000
   10.2820   43.7751   33.8088 C   0  0  0  0  0  0  0  0  0  0  0  0
   11.4050   43.5915   34.3648 O   0  0  0  0  0  0  0  0  0  0  0  0
    9.3697   42.7290   33.6967 O   0  0  0  0  0  0  0  0  0  0  0  0
    9.8866   41.2334   34.2834 P   0  0  0  0  0  5  0  0  0  0  0  0
   10.3662   41.4701   35.8740 O   0  0  0  0  0  1  0  0  0  0  0  0
    9.9469   45.1209   33.2579 C   0  0  2  0  0  0  0  0  0  0  0  0
   11.0785   46.0251   33.4695 N   0  0  0  0  0  0  0  0  0  0  0  0
    8.6916   45.6995   33.9440 C   0  0  0  0  0  0  0  0  0  0  0  0
    7.4519   44.9345   33.5920 C   0  0  0  0  0  0  0  0  0  0  0  0
    7.0146   44.9068   32.2632 O   0  0  0  0  0  0  0  0  0  0  0  0
    6.8195   44.3166   34.4918 O   0  0  0  0  0  0  0  0  0  0  0  0
    5.8454   44.2083   31.8397 C   0  0  0  0  0  0  0  0  0  0  0  0
    4.5969   44.8766   32.3687 C   0  0  0  0  0  0  0  0  0  0  0  0
    4.3429   46.2623   32.1829 C   0  0  0  0  0  0  0  0  0  0  0  0
    3.6788   44.1023   33.1018 C   0  0  0  0  0  0  0  0  0  0  0  0
    5.2328   47.1033   31.4260 N   0  0  0  0  0  4  0  0  0  0  0  0
    3.1967   46.8321   32.7674 C   0  0  0  0  0  0  0  0  0  0  0  0
    2.5402   44.6851   33.6594 C   0  0  0  0  0  0  0  0  0  0  0  0
    5.8100   46.6486   30.2634 O   0  0  0  0  0  1  0  0  0  0  0  0
    5.3648   48.3072   31.7294 O   0  0  0  0  0  0  0  0  0  0  0  0
    2.3022   46.0481   33.4968 C   0  0  0  0  0  0  0  0  0  0  0  0
    8.8084   40.1912   34.2080 O   0  0  0  0  0  0  0  0  0  0  0  0
   11.2379   40.7890   33.3678 O   0  0  0  0  0  0  0  0  0  0  0  0
   10.9159   40.6880   31.9947 C   0  0  0  0  0  0  0  0  0  0  0  0
   11.5262   39.3869   31.4362 C   0  0  0  0  0  0  0  0  0  0  0  0
   12.7493   39.0891   32.0816 O   0  0  0  0  0  0  0  0  0  0  0  0
   10.6123   38.1893   31.6460 C   0  0  0  0  0  0  0  0  0  0  0  0
   12.9374   37.6825   32.0300 C   0  0  0  0  0  0  0  0  0  0  0  0
    9.6150   38.0839   30.6538 O   0  0  0  0  0  0  0  0  0  0  0  0
   11.5793   37.0136   31.7013 C   0  0  0  0  0  0  0  0  0  0  0  0
   13.4906   37.2169   33.3242 N   0  0  0  0  0  0  0  0  0  0  0  0
   11.6216   36.3252   30.4725 O   0  0  0  0  0  0  0  0  0  0  0  0
   14.4763   36.3266   33.5731 C   0  0  0  0  0  0  0  0  0  0  0  0
   13.1181   37.6308   34.5694 C   0  0  0  0  0  0  0  0  0  0  0  0
   15.2066   35.6137   32.6740 N   0  0  0  0  0  0  0  0  0  0  0  0
   14.6735   36.2270   34.9185 C   0  0  0  0  0  0  0  0  0  0  0  0
   13.8228   37.0451   35.5787 N   0  0  0  0  0  0  0  0  0  0  0  0
   16.1639   34.7593   33.1547 C   0  0  0  0  0  0  0  0  0  0  0  0
   15.6519   35.3489   35.4132 C   0  0  0  0  0  0  0  0  0  0  0  0
   16.3794   34.6308   34.5042 N   0  0  0  0  0  0  0  0  0  0  0  0
   15.9006   35.1931   36.8090 N   0  0  0  0  0  0  0  0  0  0  0  0
    9.7603   45.0221   32.1643 H   0  0  0  0  0  0  0  0  0  0  0  0
   11.8851   45.6852   32.8951 H   0  0  0  0  0  0  0  0  0  0  0  0
   10.8349   46.9620   33.0729 H   0  0  0  0  0  0  0  0  0  0  0  0
    8.5390   46.7501   33.6156 H   0  0  0  0  0  0  0  0  0  0  0  0
    8.8347   45.7122   35.0475 H   0  0  0  0  0  0  0  0  0  0  0  0
    5.9161   43.1487   32.1707 H   0  0  0  0  0  0  0  0  0  0  0  0
    5.8100   44.1893   30.7315 H   0  0  0  0  0  0  0  0  0  0  0  0
    3.8491   43.0437   33.2546 H   0  0  0  0  0  0  0  0  0  0  0  0
    2.9859   47.8869   32.6433 H   0  0  0  0  0  0  0  0  0  0  0  0
    1.8442   44.0789   34.2248 H   0  0  0  0  0  0  0  0  0  0  0  0
    1.4203   46.4984   33.9340 H   0  0  0  0  0  0  0  0  0  0  0  0
   11.3834   41.5502   31.4728 H   0  0  0  0  0  0  0  0  0  0  0  0
    9.8257   40.7182   31.7578 H   0  0  0  0  0  0  0  0  0  0  0  0
   11.7292   39.5285   30.3500 H   0  0  0  0  0  0  0  0  0  0  0  0
   10.1141   38.2720   32.6379 H   0  0  0  0  0  0  0  0  0  0  0  0
   13.6726   37.4632   31.2239 H   0  0  0  0  0  0  0  0  0  0  0  0
   10.0534   38.1085   29.7638 H   0  0  0  0  0  0  0  0  0  0  0  0
   11.2645   36.3134   32.5107 H   0  0  0  0  0  0  0  0  0  0  0  0
   12.1547   35.5031   30.6316 H   0  0  0  0  0  0  0  0  0  0  0  0
   12.3361   38.3586   34.7449 H   0  0  0  0  0  0  0  0  0  0  0  0
   16.7574   34.1788   32.4619 H   0  0  0  0  0  0  0  0  0  0  0  0
   15.3533   35.7353   37.5139 H   0  0  0  0  0  0  0  0  0  0  0  0
   16.6366   34.5314   37.1415 H   0  0  0  0  0  0  0  0  0  0  0  0
  1  2  2  0
  1  3  1  0
  3  4  1  0
  4  5  1  0
  6  1  1  0
  7  6  1  0
  6  8  1  0
  8  9  1  0
  9 10  1  0
  9 11  2  0
 10 12  1  0
 12 13  1  0
 13 14  2  0
 15 13  1  0
 14 16  1  0
 14 17  1  0
 18 15  2  0
 16 19  1  0
 16 20  2  0
 17 21  2  0
 21 18  1  0
  4 22  2  0
  4 23  1  0
 24 23  1  0
 24 25  1  0
 25 26  1  0
 25 27  1  0
 26 28  1  0
 27 29  1  0
 27 30  1  0
 30 28  1  0
 28 31  1  0
 30 32  1  0
 33 31  1  0
 34 31  1  0
 35 33  2  0
 33 36  1  0
 37 34  2  0
 38 35  1  0
 36 39  2  0
 36 37  1  0
 40 38  2  0
 40 39  1  0
 39 41  1  0
  6 42  1  6
  7 43  1  0
  7 44  1  0
  8 45  1  0
  8 46  1  0
 12 47  1  0
 12 48  1  0
 15 49  1  0
 17 50  1  0
 18 51  1  0
 21 52  1  0
 24 53  1  0
 24 54  1  0
 25 55  1  0
 27 56  1  0
 28 57  1  0
 29 58  1  0
 30 59  1  0
 32 60  1  0
 34 61  1  0
 38 62  1  0
 41 63  1  0
 41 64  1  0
M  CHG  3   5  -1  16   1  19  -1
M  END
>  <EmbedRMS>  (545) 
0.08824935551084538

$$$$

     RDKit          3D

 64 67  0  0  0  0  0  0  0  0999 V2000
   10.2822   43.7752   33.8088 C   0  0  0  0  0  0  0  0  0  0  0  0
   11.4051   43.5917   34.3648 O   0  0  0  0  0  0  0  0  0  0  0  0
    9.3712   42.7284   33.6946 O   0  0  0  0  0  0  0  0  0  0  0  0
    9.8867   41.2333   34.2833 P   0  0  0  0  0  5  0  0  0  0  0  0
   10.3656   41.4708   35.8740 O   0  0  0  0  0  1  0  0  0  0  0  0
    9.9447   45.1225   33.2625 C   0  0  2  0  0  0  0  0  0  0  0  0
   11.0796   46.0242   33.4669 N   0  0  0  0  0  0  0  0  0  0  0  0
    8.6964   45.7029   33.9605 C   0  0  0  0  0  0  0  0  0  0  0  0
    7.4510   44.9466   33.6122 C   0  0  0  0  0  0  0  0  0  0  0  0
    6.9090   44.0503   34.5402 O   0  0  0  0  0  0  0  0  0  0  0  0
    6.9207   45.1007   32.4780 O   0  0  0  0  0  0  0  0  0  0  0  0
    5.7468   43.2650   34.2829 C   0  0  0  0  0  0  0  0  0  0  0  0
    4.5117   44.1346   34.2277 C   0  0  0  0  0  0  0  0  0  0  0  0
    4.1589   45.0201   35.2834 C   0  0  0  0  0  0  0  0  0  0  0  0
    3.7107   44.0913   33.0716 C   0  0  0  0  0  0  0  0  0  0  0  0
    4.9241   45.1052   36.4999 N   0  0  0  0  0  4  0  0  0  0  0  0
    3.0372   45.8544   35.1293 C   0  0  0  0  0  0  0  0  0  0  0  0
    2.5929   44.9169   32.9476 C   0  0  0  0  0  0  0  0  0  0  0  0
    4.9709   46.2889   37.2001 O   0  0  0  0  0  1  0  0  0  0  0  0
    5.4147   44.0824   37.0198 O   0  0  0  0  0  0  0  0  0  0  0  0
    2.2596   45.7999   33.9721 C   0  0  0  0  0  0  0  0  0  0  0  0
    8.8079   40.1917   34.2080 O   0  0  0  0  0  0  0  0  0  0  0  0
   11.2382   40.7880   33.3684 O   0  0  0  0  0  0  0  0  0  0  0  0
   10.9170   40.6885   31.9951 C   0  0  0  0  0  0  0  0  0  0  0  0
   11.5255   39.3870   31.4361 C   0  0  0  0  0  0  0  0  0  0  0  0
   12.7490   39.0876   32.0798 O   0  0  0  0  0  0  0  0  0  0  0  0
   10.6102   38.1909   31.6470 C   0  0  0  0  0  0  0  0  0  0  0  0
   12.9349   37.6805   32.0291 C   0  0  0  0  0  0  0  0  0  0  0  0
    9.6126   38.0874   30.6548 O   0  0  0  0  0  0  0  0  0  0  0  0
   11.5767   37.0132   31.7025 C   0  0  0  0  0  0  0  0  0  0  0  0
   13.4902   37.2164   33.3236 N   0  0  0  0  0  0  0  0  0  0  0  0
   11.6321   36.3230   30.4740 O   0  0  0  0  0  0  0  0  0  0  0  0
   14.4763   36.3266   33.5727 C   0  0  0  0  0  0  0  0  0  0  0  0
   13.1179   37.6307   34.5688 C   0  0  0  0  0  0  0  0  0  0  0  0
   15.2066   35.6135   32.6739 N   0  0  0  0  0  0  0  0  0  0  0  0
   14.6736   36.2272   34.9182 C   0  0  0  0  0  0  0  0  0  0  0  0
   13.8228   37.0453   35.5783 N   0  0  0  0  0  0  0  0  0  0  0  0
   16.1640   34.7592   33.1547 C   0  0  0  0  0  0  0  0  0  0  0  0
   15.6519   35.3491   35.4131 C   0  0  0  0  0  0  0  0  0  0  0  0
   16.3795   34.6309   34.5042 N   0  0  0  0  0  0  0  0  0  0  0  0
   15.9004   35.1933   36.8089 N   0  0  0  0  0  0  0  0  0  0  0  0
    9.7477   45.0263   32.1704 H   0  0  0  0  0  0  0  0  0  0  0  0
   11.8818   45.6823   32.8878 H   0  0  0  0  0  0  0  0  0  0  0  0
   10.8358   46.9615   33.0712 H   0  0  0  0  0  0  0  0  0  0  0  0
    8.8402   45.6973   35.0634 H   0  0  0  0  0  0  0  0  0  0  0  0
    8.5519   46.7608   33.6508 H   0  0  0  0  0  0  0  0  0  0  0  0
    5.6295   42.5094   35.0864 H   0  0  0  0  0  0  0  0  0  0  0  0
    5.8938   42.6971   33.3378 H   0  0  0  0  0  0  0  0  0  0  0  0
    3.9577   43.4244   32.2548 H   0  0  0  0  0  0  0  0  0  0  0  0
    2.7525   46.5401   35.9172 H   0  0  0  0  0  0  0  0  0  0  0  0
    1.9876   44.8763   32.0512 H   0  0  0  0  0  0  0  0  0  0  0  0
    1.3944   46.4423   33.8713 H   0  0  0  0  0  0  0  0  0  0  0  0
   11.3863   41.5503   31.4741 H   0  0  0  0  0  0  0  0  0  0  0  0
    9.8270   40.7206   31.7574 H   0  0  0  0  0  0  0  0  0  0  0  0
   11.7274   39.5285   30.3498 H   0  0  0  0  0  0  0  0  0  0  0  0
   10.1125   38.2733   32.6390 H   0  0  0  0  0  0  0  0  0  0  0  0
   13.6686   37.4585   31.2224 H   0  0  0  0  0  0  0  0  0  0  0  0
   10.0512   38.1110   29.7648 H   0  0  0  0  0  0  0  0  0  0  0  0
   11.2801   36.3127   32.5194 H   0  0  0  0  0  0  0  0  0  0  0  0
   10.8624   35.6960   30.4644 H   0  0  0  0  0  0  0  0  0  0  0  0
   12.3355   38.3579   34.7444 H   0  0  0  0  0  0  0  0  0  0  0  0
   16.7575   34.1787   32.4620 H   0  0  0  0  0  0  0  0  0  0  0  0
   15.3531   35.7355   37.5138 H   0  0  0  0  0  0  0  0  0  0  0  0
   16.6364   34.5315   37.1415 H   0  0  0  0  0  0  0  0  0  0  0  0
  1  2  2  0
  1  3  1  0
  3  4  1  0
  4  5  1  0
  6  1  1  0
  7  6  1  0
  6  8  1  0
  8  9  1  0
  9 10  1  0
  9 11  2  0
 10 12  1  0
 12 13  1  0
 13 14  2  0
 15 13  1  0
 14 16  1  0
 14 17  1  0
 18 15  2  0
 16 19  1  0
 16 20  2  0
 17 21  2  0
 21 18  1  0
  4 22  2  0
  4 23  1  0
 24 23  1  0
 24 25  1  0
 25 26  1  0
 25 27  1  0
 26 28  1  0
 27 29  1  0
 27 30  1  0
 30 28  1  0
 28 31  1  0
 30 32  1  0
 33 31  1  0
 34 31  1  0
 35 33  2  0
 33 36  1  0
 37 34  2  0
 38 35  1  0
 36 39  2  0
 36 37  1  0
 40 38  2  0
 40 39  1  0
 39 41  1  0
  6 42  1  6
  7 43  1  0
  7 44  1  0
  8 45  1  0
  8 46  1  0
 12 47  1  0
 12 48  1  0
 15 49  1  0
 17 50  1  0
 18 51  1  0
 21 52  1  0
 24 53  1  0
 24 54  1  0
 25 55  1  0
 27 56  1  0
 28 57  1  0
 29 58  1  0
 30 59  1  0
 32 60  1  0
 34 61  1  0
 38 62  1  0
 41 63  1  0
 41 64  1  0
M  CHG  3   5  -1  16   1  19  -1
M  END
>  <EmbedRMS>  (546) 
0.08866552362946445

$$$$

     RDKit          3D

 64 67  0  0  0  0  0  0  0  0999 V2000
   10.2828   43.7760   33.8115 C   0  0  0  0  0  0  0  0  0  0  0  0
   11.4047   43.5941   34.3694 O   0  0  0  0  0  0  0  0  0  0  0  0
    9.3713   42.7290   33.7050 O   0  0  0  0  0  0  0  0  0  0  0  0
    9.8878   41.2325   34.2851 P   0  0  0  0  0  5  0  0  0  0  0  0
   10.3687   41.4663   35.8755 O   0  0  0  0  0  1  0  0  0  0  0  0
    9.9627   45.1120   33.2237 C   0  0  2  0  0  0  0  0  0  0  0  0
   11.0676   46.0343   33.4907 N   0  0  0  0  0  0  0  0  0  0  0  0
    8.6478   45.6866   33.8016 C   0  0  0  0  0  0  0  0  0  0  0  0
    7.4341   44.8891   33.4133 C   0  0  0  0  0  0  0  0  0  0  0  0
    7.4635   44.0896   32.2671 O   0  0  0  0  0  0  0  0  0  0  0  0
    6.3915   44.9588   34.1189 O   0  0  0  0  0  0  0  0  0  0  0  0
    6.4587   43.1306   31.9529 C   0  0  0  0  0  0  0  0  0  0  0  0
    6.9663   42.1648   30.9055 C   0  0  0  0  0  0  0  0  0  0  0  0
    6.5200   40.8179   30.8577 C   0  0  0  0  0  0  0  0  0  0  0  0
    7.9111   42.6052   29.9566 C   0  0  0  0  0  0  0  0  0  0  0  0
    5.4931   40.3319   31.7391 N   0  0  0  0  0  4  0  0  0  0  0  0
    7.0867   39.9386   29.9177 C   0  0  0  0  0  0  0  0  0  0  0  0
    8.4516   41.7193   29.0241 C   0  0  0  0  0  0  0  0  0  0  0  0
    4.3759   41.0945   31.9913 O   0  0  0  0  0  1  0  0  0  0  0  0
    5.5151   39.1476   32.1337 O   0  0  0  0  0  0  0  0  0  0  0  0
    8.0475   40.3866   29.0108 C   0  0  0  0  0  0  0  0  0  0  0  0
    8.8081   40.1918   34.2074 O   0  0  0  0  0  0  0  0  0  0  0  0
   11.2373   40.7917   33.3650 O   0  0  0  0  0  0  0  0  0  0  0  0
   10.9095   40.6850   31.9936 C   0  0  0  0  0  0  0  0  0  0  0  0
   11.5149   39.3796   31.4400 C   0  0  0  0  0  0  0  0  0  0  0  0
   12.7473   39.0893   32.0753 O   0  0  0  0  0  0  0  0  0  0  0  0
   10.6045   38.1868   31.6660 C   0  0  0  0  0  0  0  0  0  0  0  0
   12.9407   37.6835   32.0275 C   0  0  0  0  0  0  0  0  0  0  0  0
    9.6367   38.0895   30.6501 O   0  0  0  0  0  0  0  0  0  0  0  0
   11.5826   37.0179   31.6939 C   0  0  0  0  0  0  0  0  0  0  0  0
   13.4909   37.2184   33.3237 N   0  0  0  0  0  0  0  0  0  0  0  0
   11.6141   36.3178   30.4678 O   0  0  0  0  0  0  0  0  0  0  0  0
   14.4761   36.3274   33.5731 C   0  0  0  0  0  0  0  0  0  0  0  0
   13.1179   37.6321   34.5687 C   0  0  0  0  0  0  0  0  0  0  0  0
   15.2066   35.6143   32.6742 N   0  0  0  0  0  0  0  0  0  0  0  0
   14.6730   36.2275   34.9185 C   0  0  0  0  0  0  0  0  0  0  0  0
   13.8221   37.0458   35.5783 N   0  0  0  0  0  0  0  0  0  0  0  0
   16.1637   34.7596   33.1549 C   0  0  0  0  0  0  0  0  0  0  0  0
   15.6513   35.3492   35.4133 C   0  0  0  0  0  0  0  0  0  0  0  0
   16.3790   34.6311   34.5044 N   0  0  0  0  0  0  0  0  0  0  0  0
   15.9001   35.1934   36.8091 N   0  0  0  0  0  0  0  0  0  0  0  0
    9.8586   44.9943   32.1210 H   0  0  0  0  0  0  0  0  0  0  0  0
   11.9097   45.7048   32.9632 H   0  0  0  0  0  0  0  0  0  0  0  0
   10.8320   46.9659   33.0769 H   0  0  0  0  0  0  0  0  0  0  0  0
    8.7202   45.7355   34.9105 H   0  0  0  0  0  0  0  0  0  0  0  0
    8.5004   46.7218   33.4259 H   0  0  0  0  0  0  0  0  0  0  0  0
    6.2073   42.5751   32.8820 H   0  0  0  0  0  0  0  0  0  0  0  0
    5.5523   43.6501   31.5762 H   0  0  0  0  0  0  0  0  0  0  0  0
    8.2475   43.6343   29.9457 H   0  0  0  0  0  0  0  0  0  0  0  0
    6.7673   38.9050   29.8734 H   0  0  0  0  0  0  0  0  0  0  0  0
    9.1895   42.0668   28.3125 H   0  0  0  0  0  0  0  0  0  0  0  0
    8.4716   39.7005   28.2891 H   0  0  0  0  0  0  0  0  0  0  0  0
   11.3756   41.5436   31.4646 H   0  0  0  0  0  0  0  0  0  0  0  0
    9.8183   40.7160   31.7610 H   0  0  0  0  0  0  0  0  0  0  0  0
   11.6961   39.5065   30.3476 H   0  0  0  0  0  0  0  0  0  0  0  0
   10.1110   38.2720   32.6632 H   0  0  0  0  0  0  0  0  0  0  0  0
   13.6810   37.4640   31.2265 H   0  0  0  0  0  0  0  0  0  0  0  0
    8.9936   37.3929   30.9437 H   0  0  0  0  0  0  0  0  0  0  0  0
   11.2849   36.3041   32.4933 H   0  0  0  0  0  0  0  0  0  0  0  0
   11.8838   36.9590   29.7589 H   0  0  0  0  0  0  0  0  0  0  0  0
   12.3362   38.3603   34.7440 H   0  0  0  0  0  0  0  0  0  0  0  0
   16.7572   34.1792   32.4622 H   0  0  0  0  0  0  0  0  0  0  0  0
   16.6361   34.5317   37.1416 H   0  0  0  0  0  0  0  0  0  0  0  0
   15.3528   35.7357   37.5140 H   0  0  0  0  0  0  0  0  0  0  0  0
  1  2  2  0
  1  3  1  0
  3  4  1  0
  4  5  1  0
  6  1  1  0
  7  6  1  0
  6  8  1  0
  8  9  1  0
  9 10  1  0
  9 11  2  0
 10 12  1  0
 12 13  1  0
 13 14  2  0
 15 13  1  0
 14 16  1  0
 14 17  1  0
 18 15  2  0
 16 19  1  0
 16 20  2  0
 17 21  2  0
 21 18  1  0
  4 22  2  0
  4 23  1  0
 24 23  1  0
 24 25  1  0
 25 26  1  0
 25 27  1  0
 26 28  1  0
 27 29  1  0
 27 30  1  0
 30 28  1  0
 28 31  1  0
 30 32  1  0
 33 31  1  0
 34 31  1  0
 35 33  2  0
 33 36  1  0
 37 34  2  0
 38 35  1  0
 36 39  2  0
 36 37  1  0
 40 38  2  0
 40 39  1  0
 39 41  1  0
  6 42  1  6
  7 43  1  0
  7 44  1  0
  8 45  1  0
  8 46  1  0
 12 47  1  0
 12 48  1  0
 15 49  1  0
 17 50  1  0
 18 51  1  0
 21 52  1  0
 24 53  1  0
 24 54  1  0
 25 55  1  0
 27 56  1  0
 28 57  1  0
 29 58  1  0
 30 59  1  0
 32 60  1  0
 34 61  1  0
 38 62  1  0
 41 63  1  0
 41 64  1  0
M  CHG  3   5  -1  16   1  19  -1
M  END
>  <EmbedRMS>  (547) 
0.0883628174254691

$$$$

     RDKit          3D

 64 67  0  0  0  0  0  0  0  0999 V2000
   10.2849   43.7725   33.8069 C   0  0  0  0  0  0  0  0  0  0  0  0
   11.4105   43.5873   34.3564 O   0  0  0  0  0  0  0  0  0  0  0  0
    9.3666   42.7311   33.7014 O   0  0  0  0  0  0  0  0  0  0  0  0
    9.8856   41.2339   34.2841 P   0  0  0  0  0  5  0  0  0  0  0  0
   10.3658   41.4694   35.8747 O   0  0  0  0  0  1  0  0  0  0  0  0
    9.9585   45.1105   33.2433 C   0  0  2  0  0  0  0  0  0  0  0  0
   11.0674   46.0370   33.4849 N   0  0  0  0  0  0  0  0  0  0  0  0
    8.6188   45.6568   33.7870 C   0  0  0  0  0  0  0  0  0  0  0  0
    8.6088   45.8069   35.2795 C   0  0  0  0  0  0  0  0  0  0  0  0
    9.0178   47.0146   35.8508 O   0  0  0  0  0  0  0  0  0  0  0  0
    8.2627   44.8357   36.0064 O   0  0  0  0  0  0  0  0  0  0  0  0
    9.0867   47.2165   37.2599 C   0  0  0  0  0  0  0  0  0  0  0  0
    9.6315   48.5896   37.5804 C   0  0  0  0  0  0  0  0  0  0  0  0
    9.2654   49.2753   38.7689 C   0  0  0  0  0  0  0  0  0  0  0  0
   10.5493   49.1941   36.6982 C   0  0  0  0  0  0  0  0  0  0  0  0
    8.4203   48.6670   39.7612 N   0  0  0  0  0  4  0  0  0  0  0  0
    9.7559   50.5748   38.9919 C   0  0  0  0  0  0  0  0  0  0  0  0
   11.0392   50.4767   36.9479 C   0  0  0  0  0  0  0  0  0  0  0  0
    8.6065   47.3520   40.1208 O   0  0  0  0  0  1  0  0  0  0  0  0
    7.6439   49.3713   40.4394 O   0  0  0  0  0  0  0  0  0  0  0  0
   10.6339   51.1705   38.0859 C   0  0  0  0  0  0  0  0  0  0  0  0
    8.8083   40.1909   34.2080 O   0  0  0  0  0  0  0  0  0  0  0  0
   11.2384   40.7904   33.3687 O   0  0  0  0  0  0  0  0  0  0  0  0
   10.9193   40.6895   31.9950 C   0  0  0  0  0  0  0  0  0  0  0  0
   11.5170   39.3801   31.4398 C   0  0  0  0  0  0  0  0  0  0  0  0
   12.7478   39.0862   32.0734 O   0  0  0  0  0  0  0  0  0  0  0  0
   10.6031   38.1891   31.6667 C   0  0  0  0  0  0  0  0  0  0  0  0
   12.9335   37.6797   32.0280 C   0  0  0  0  0  0  0  0  0  0  0  0
    9.6397   38.0777   30.6456 O   0  0  0  0  0  0  0  0  0  0  0  0
   11.5739   37.0154   31.7057 C   0  0  0  0  0  0  0  0  0  0  0  0
   13.4903   37.2178   33.3231 N   0  0  0  0  0  0  0  0  0  0  0  0
   11.6211   36.3376   30.4695 O   0  0  0  0  0  0  0  0  0  0  0  0
   14.4761   36.3273   33.5725 C   0  0  0  0  0  0  0  0  0  0  0  0
   13.1179   37.6317   34.5684 C   0  0  0  0  0  0  0  0  0  0  0  0
   15.2063   35.6139   32.6737 N   0  0  0  0  0  0  0  0  0  0  0  0
   14.6733   36.2277   34.9179 C   0  0  0  0  0  0  0  0  0  0  0  0
   13.8225   37.0459   35.5779 N   0  0  0  0  0  0  0  0  0  0  0  0
   16.1636   34.7594   33.1546 C   0  0  0  0  0  0  0  0  0  0  0  0
   15.6515   35.3494   35.4129 C   0  0  0  0  0  0  0  0  0  0  0  0
   16.3791   34.6311   34.5041 N   0  0  0  0  0  0  0  0  0  0  0  0
   15.9001   35.1935   36.8088 N   0  0  0  0  0  0  0  0  0  0  0  0
    9.8504   44.9833   32.1438 H   0  0  0  0  0  0  0  0  0  0  0  0
   10.8485   46.9501   33.0239 H   0  0  0  0  0  0  0  0  0  0  0  0
   11.1677   46.2212   34.5096 H   0  0  0  0  0  0  0  0  0  0  0  0
    7.7913   44.9790   33.4826 H   0  0  0  0  0  0  0  0  0  0  0  0
    8.4107   46.6454   33.3240 H   0  0  0  0  0  0  0  0  0  0  0  0
    8.0613   47.1027   37.6716 H   0  0  0  0  0  0  0  0  0  0  0  0
    9.7532   46.4521   37.7144 H   0  0  0  0  0  0  0  0  0  0  0  0
   10.8823   48.6787   35.8060 H   0  0  0  0  0  0  0  0  0  0  0  0
    9.4788   51.1184   39.8864 H   0  0  0  0  0  0  0  0  0  0  0  0
   11.7335   50.9346   36.2551 H   0  0  0  0  0  0  0  0  0  0  0  0
   11.0134   52.1663   38.2755 H   0  0  0  0  0  0  0  0  0  0  0  0
   11.4008   41.5437   31.4729 H   0  0  0  0  0  0  0  0  0  0  0  0
    9.8314   40.7396   31.7550 H   0  0  0  0  0  0  0  0  0  0  0  0
   11.6982   39.5043   30.3471 H   0  0  0  0  0  0  0  0  0  0  0  0
   10.1089   38.2631   32.6650 H   0  0  0  0  0  0  0  0  0  0  0  0
   13.6656   37.4541   31.2207 H   0  0  0  0  0  0  0  0  0  0  0  0
    8.8965   38.6899   30.8852 H   0  0  0  0  0  0  0  0  0  0  0  0
   11.2846   36.3060   32.5175 H   0  0  0  0  0  0  0  0  0  0  0  0
   10.8523   35.7094   30.4590 H   0  0  0  0  0  0  0  0  0  0  0  0
   12.3353   38.3588   34.7440 H   0  0  0  0  0  0  0  0  0  0  0  0
   16.7570   34.1788   32.4619 H   0  0  0  0  0  0  0  0  0  0  0  0
   15.3529   35.7359   37.5136 H   0  0  0  0  0  0  0  0  0  0  0  0
   16.6360   34.5317   37.1413 H   0  0  0  0  0  0  0  0  0  0  0  0
  1  2  2  0
  1  3  1  0
  3  4  1  0
  4  5  1  0
  6  1  1  0
  7  6  1  0
  6  8  1  0
  8  9  1  0
  9 10  1  0
  9 11  2  0
 10 12  1  0
 12 13  1  0
 13 14  2  0
 15 13  1  0
 14 16  1  0
 14 17  1  0
 18 15  2  0
 16 19  1  0
 16 20  2  0
 17 21  2  0
 21 18  1  0
  4 22  2  0
  4 23  1  0
 24 23  1  0
 24 25  1  0
 25 26  1  0
 25 27  1  0
 26 28  1  0
 27 29  1  0
 27 30  1  0
 30 28  1  0
 28 31  1  0
 30 32  1  0
 33 31  1  0
 34 31  1  0
 35 33  2  0
 33 36  1  0
 37 34  2  0
 38 35  1  0
 36 39  2  0
 36 37  1  0
 40 38  2  0
 40 39  1  0
 39 41  1  0
  6 42  1  6
  7 43  1  0
  7 44  1  0
  8 45  1  0
  8 46  1  0
 12 47  1  0
 12 48  1  0
 15 49  1  0
 17 50  1  0
 18 51  1  0
 21 52  1  0
 24 53  1  0
 24 54  1  0
 25 55  1  0
 27 56  1  0
 28 57  1  0
 29 58  1  0
 30 59  1  0
 32 60  1  0
 34 61  1  0
 38 62  1  0
 41 63  1  0
 41 64  1  0
M  CHG  3   5  -1  16   1  19  -1
M  END
>  <EmbedRMS>  (548) 
0.08933515144071547

$$$$

     RDKit          3D

 64 67  0  0  0  0  0  0  0  0999 V2000
   10.2851   43.7724   33.8062 C   0  0  0  0  0  0  0  0  0  0  0  0
   11.4106   43.5873   34.3558 O   0  0  0  0  0  0  0  0  0  0  0  0
    9.3665   42.7313   33.7011 O   0  0  0  0  0  0  0  0  0  0  0  0
    9.8852   41.2342   34.2845 P   0  0  0  0  0  5  0  0  0  0  0  0
   10.3659   41.4699   35.8749 O   0  0  0  0  0  1  0  0  0  0  0  0
    9.9577   45.1111   33.2449 C   0  0  2  0  0  0  0  0  0  0  0  0
   11.0677   46.0364   33.4846 N   0  0  0  0  0  0  0  0  0  0  0  0
    8.6209   45.6583   33.7948 C   0  0  0  0  0  0  0  0  0  0  0  0
    8.6142   45.7987   35.2884 C   0  0  0  0  0  0  0  0  0  0  0  0
    8.9664   47.0234   35.8661 O   0  0  0  0  0  0  0  0  0  0  0  0
    8.3167   44.8072   36.0085 O   0  0  0  0  0  0  0  0  0  0  0  0
    9.0281   47.2407   37.2750 C   0  0  0  0  0  0  0  0  0  0  0  0
    7.6458   47.2048   37.8871 C   0  0  0  0  0  0  0  0  0  0  0  0
    7.3223   46.4049   39.0156 C   0  0  0  0  0  0  0  0  0  0  0  0
    6.6723   48.0756   37.3646 C   0  0  0  0  0  0  0  0  0  0  0  0
    8.2634   45.4898   39.5959 N   0  0  0  0  0  4  0  0  0  0  0  0
    6.0450   46.5126   39.5912 C   0  0  0  0  0  0  0  0  0  0  0  0
    5.4027   48.1539   37.9386 C   0  0  0  0  0  0  0  0  0  0  0  0
    8.3450   45.3770   40.9646 O   0  0  0  0  0  1  0  0  0  0  0  0
    8.8057   44.6170   38.8879 O   0  0  0  0  0  0  0  0  0  0  0  0
    5.0908   47.3766   39.0524 C   0  0  0  0  0  0  0  0  0  0  0  0
    8.8077   40.1913   34.2090 O   0  0  0  0  0  0  0  0  0  0  0  0
   11.2370   40.7901   33.3685 O   0  0  0  0  0  0  0  0  0  0  0  0
   10.9158   40.6889   31.9953 C   0  0  0  0  0  0  0  0  0  0  0  0
   11.5251   39.3873   31.4366 C   0  0  0  0  0  0  0  0  0  0  0  0
   12.7485   39.0880   32.0804 O   0  0  0  0  0  0  0  0  0  0  0  0
   10.6100   38.1909   31.6471 C   0  0  0  0  0  0  0  0  0  0  0  0
   12.9348   37.6808   32.0292 C   0  0  0  0  0  0  0  0  0  0  0  0
    9.6126   38.0874   30.6547 O   0  0  0  0  0  0  0  0  0  0  0  0
   11.5767   37.0133   31.7025 C   0  0  0  0  0  0  0  0  0  0  0  0
   13.4901   37.2165   33.3236 N   0  0  0  0  0  0  0  0  0  0  0  0
   11.6322   36.3231   30.4741 O   0  0  0  0  0  0  0  0  0  0  0  0
   14.4763   36.3266   33.5727 C   0  0  0  0  0  0  0  0  0  0  0  0
   13.1179   37.6307   34.5689 C   0  0  0  0  0  0  0  0  0  0  0  0
   15.2065   35.6135   32.6738 N   0  0  0  0  0  0  0  0  0  0  0  0
   14.6736   36.2272   34.9182 C   0  0  0  0  0  0  0  0  0  0  0  0
   13.8228   37.0453   35.5783 N   0  0  0  0  0  0  0  0  0  0  0  0
   16.1640   34.7593   33.1547 C   0  0  0  0  0  0  0  0  0  0  0  0
   15.6518   35.3491   35.4131 C   0  0  0  0  0  0  0  0  0  0  0  0
   16.3795   34.6309   34.5042 N   0  0  0  0  0  0  0  0  0  0  0  0
   15.9004   35.1933   36.8089 N   0  0  0  0  0  0  0  0  0  0  0  0
    9.8456   44.9852   32.1456 H   0  0  0  0  0  0  0  0  0  0  0  0
   11.1609   46.2306   34.5082 H   0  0  0  0  0  0  0  0  0  0  0  0
   10.8540   46.9453   33.0131 H   0  0  0  0  0  0  0  0  0  0  0  0
    7.7909   44.9842   33.4893 H   0  0  0  0  0  0  0  0  0  0  0  0
    8.4139   46.6499   33.3377 H   0  0  0  0  0  0  0  0  0  0  0  0
    9.4581   48.2488   37.4526 H   0  0  0  0  0  0  0  0  0  0  0  0
    9.7330   46.5185   37.7296 H   0  0  0  0  0  0  0  0  0  0  0  0
    6.9027   48.7063   36.5145 H   0  0  0  0  0  0  0  0  0  0  0  0
    5.7829   45.9109   40.4525 H   0  0  0  0  0  0  0  0  0  0  0  0
    4.6628   48.8272   37.5253 H   0  0  0  0  0  0  0  0  0  0  0  0
    4.1075   47.4434   39.5000 H   0  0  0  0  0  0  0  0  0  0  0  0
    9.8257   40.7203   31.7581 H   0  0  0  0  0  0  0  0  0  0  0  0
   11.3843   41.5507   31.4735 H   0  0  0  0  0  0  0  0  0  0  0  0
   11.7272   39.5288   30.3503 H   0  0  0  0  0  0  0  0  0  0  0  0
   10.1122   38.2731   32.6390 H   0  0  0  0  0  0  0  0  0  0  0  0
   13.6685   37.4592   31.2224 H   0  0  0  0  0  0  0  0  0  0  0  0
   10.0514   38.1111   29.7648 H   0  0  0  0  0  0  0  0  0  0  0  0
   11.2802   36.3128   32.5195 H   0  0  0  0  0  0  0  0  0  0  0  0
   10.8625   35.6960   30.4645 H   0  0  0  0  0  0  0  0  0  0  0  0
   12.3356   38.3581   34.7445 H   0  0  0  0  0  0  0  0  0  0  0  0
   16.7575   34.1787   32.4619 H   0  0  0  0  0  0  0  0  0  0  0  0
   15.3531   35.7355   37.5138 H   0  0  0  0  0  0  0  0  0  0  0  0
   16.6364   34.5315   37.1415 H   0  0  0  0  0  0  0  0  0  0  0  0
  1  2  2  0
  1  3  1  0
  3  4  1  0
  4  5  1  0
  6  1  1  0
  7  6  1  0
  6  8  1  0
  8  9  1  0
  9 10  1  0
  9 11  2  0
 10 12  1  0
 12 13  1  0
 13 14  2  0
 15 13  1  0
 14 16  1  0
 14 17  1  0
 18 15  2  0
 16 19  1  0
 16 20  2  0
 17 21  2  0
 21 18  1  0
  4 22  2  0
  4 23  1  0
 24 23  1  0
 24 25  1  0
 25 26  1  0
 25 27  1  0
 26 28  1  0
 27 29  1  0
 27 30  1  0
 30 28  1  0
 28 31  1  0
 30 32  1  0
 33 31  1  0
 34 31  1  0
 35 33  2  0
 33 36  1  0
 37 34  2  0
 38 35  1  0
 36 39  2  0
 36 37  1  0
 40 38  2  0
 40 39  1  0
 39 41  1  0
  6 42  1  6
  7 43  1  0
  7 44  1  0
  8 45  1  0
  8 46  1  0
 12 47  1  0
 12 48  1  0
 15 49  1  0
 17 50  1  0
 18 51  1  0
 21 52  1  0
 24 53  1  0
 24 54  1  0
 25 55  1  0
 27 56  1  0
 28 57  1  0
 29 58  1  0
 30 59  1  0
 32 60  1  0
 34 61  1  0
 38 62  1  0
 41 63  1  0
 41 64  1  0
M  CHG  3   5  -1  16   1  19  -1
M  END
>  <EmbedRMS>  (549) 
0.08801722809426098

$$$$

     RDKit          3D

 64 67  0  0  0  0  0  0  0  0999 V2000
   10.2796   43.7760   33.8113 C   0  0  0  0  0  0  0  0  0  0  0  0
   11.4031   43.5917   34.3663 O   0  0  0  0  0  0  0  0  0  0  0  0
    9.3673   42.7299   33.6991 O   0  0  0  0  0  0  0  0  0  0  0  0
    9.8867   41.2337   34.2835 P   0  0  0  0  0  5  0  0  0  0  0  0
   10.3656   41.4693   35.8745 O   0  0  0  0  0  1  0  0  0  0  0  0
    9.9465   45.1220   33.2592 C   0  0  2  0  0  0  0  0  0  0  0  0
   11.0825   46.0223   33.4650 N   0  0  0  0  0  0  0  0  0  0  0  0
    8.6976   45.7114   33.9504 C   0  0  0  0  0  0  0  0  0  0  0  0
    7.4397   44.9534   33.6444 C   0  0  0  0  0  0  0  0  0  0  0  0
    6.5807   44.6063   34.6907 O   0  0  0  0  0  0  0  0  0  0  0  0
    7.1398   44.6800   32.4496 O   0  0  0  0  0  0  0  0  0  0  0  0
    5.3642   43.8941   34.4865 C   0  0  0  0  0  0  0  0  0  0  0  0
    4.6314   43.7511   35.7984 C   0  0  0  0  0  0  0  0  0  0  0  0
    5.2345   43.1601   36.9428 C   0  0  0  0  0  0  0  0  0  0  0  0
    3.3228   44.2598   35.8993 C   0  0  0  0  0  0  0  0  0  0  0  0
    6.5611   42.6040   36.9060 N   0  0  0  0  0  4  0  0  0  0  0  0
    4.5207   43.1291   38.1540 C   0  0  0  0  0  0  0  0  0  0  0  0
    2.6267   44.2030   37.1074 C   0  0  0  0  0  0  0  0  0  0  0  0
    7.3411   42.6107   38.0396 O   0  0  0  0  0  1  0  0  0  0  0  0
    6.9541   41.9607   35.9124 O   0  0  0  0  0  0  0  0  0  0  0  0
    3.2262   43.6435   38.2335 C   0  0  0  0  0  0  0  0  0  0  0  0
    8.8104   40.1896   34.2065 O   0  0  0  0  0  0  0  0  0  0  0  0
   11.2386   40.7915   33.3679 O   0  0  0  0  0  0  0  0  0  0  0  0
   10.9161   40.6899   31.9952 C   0  0  0  0  0  0  0  0  0  0  0  0
   11.5272   39.3897   31.4371 C   0  0  0  0  0  0  0  0  0  0  0  0
   12.7509   39.0915   32.0837 O   0  0  0  0  0  0  0  0  0  0  0  0
   10.6122   38.1917   31.6452 C   0  0  0  0  0  0  0  0  0  0  0  0
   12.9429   37.6851   32.0295 C   0  0  0  0  0  0  0  0  0  0  0  0
    9.6069   38.0859   30.6604 O   0  0  0  0  0  0  0  0  0  0  0  0
   11.5844   37.0186   31.6880 C   0  0  0  0  0  0  0  0  0  0  0  0
   13.4898   37.2163   33.3250 N   0  0  0  0  0  0  0  0  0  0  0  0
   11.6200   36.3062   30.4693 O   0  0  0  0  0  0  0  0  0  0  0  0
   14.4759   36.3263   33.5739 C   0  0  0  0  0  0  0  0  0  0  0  0
   13.1175   37.6307   34.5699 C   0  0  0  0  0  0  0  0  0  0  0  0
   15.2065   35.6139   32.6746 N   0  0  0  0  0  0  0  0  0  0  0  0
   14.6731   36.2267   34.9191 C   0  0  0  0  0  0  0  0  0  0  0  0
   13.8224   37.0450   35.5792 N   0  0  0  0  0  0  0  0  0  0  0  0
   16.1640   34.7596   33.1551 C   0  0  0  0  0  0  0  0  0  0  0  0
   15.6517   35.3489   35.4136 C   0  0  0  0  0  0  0  0  0  0  0  0
   16.3795   34.6310   34.5046 N   0  0  0  0  0  0  0  0  0  0  0  0
   15.9006   35.1931   36.8094 N   0  0  0  0  0  0  0  0  0  0  0  0
    9.7563   45.0225   32.1664 H   0  0  0  0  0  0  0  0  0  0  0  0
   10.8417   46.9592   33.0666 H   0  0  0  0  0  0  0  0  0  0  0  0
   11.8860   45.6777   32.8892 H   0  0  0  0  0  0  0  0  0  0  0  0
    8.8576   45.7360   35.0510 H   0  0  0  0  0  0  0  0  0  0  0  0
    8.5456   46.7591   33.6127 H   0  0  0  0  0  0  0  0  0  0  0  0
    5.5732   42.8911   34.0584 H   0  0  0  0  0  0  0  0  0  0  0  0
    4.7443   44.4458   33.7458 H   0  0  0  0  0  0  0  0  0  0  0  0
    2.8392   44.7130   35.0427 H   0  0  0  0  0  0  0  0  0  0  0  0
    4.9624   42.6881   39.0386 H   0  0  0  0  0  0  0  0  0  0  0  0
    1.6220   44.6006   37.1717 H   0  0  0  0  0  0  0  0  0  0  0  0
    2.6855   43.6049   39.1704 H   0  0  0  0  0  0  0  0  0  0  0  0
    9.8259   40.7194   31.7583 H   0  0  0  0  0  0  0  0  0  0  0  0
   11.3829   41.5524   31.4731 H   0  0  0  0  0  0  0  0  0  0  0  0
   11.7321   39.5333   30.3517 H   0  0  0  0  0  0  0  0  0  0  0  0
   10.1216   38.2685   32.6413 H   0  0  0  0  0  0  0  0  0  0  0  0
   13.6882   37.4705   31.2319 H   0  0  0  0  0  0  0  0  0  0  0  0
   10.0255   38.1751   29.7657 H   0  0  0  0  0  0  0  0  0  0  0  0
   11.2794   36.3124   32.4916 H   0  0  0  0  0  0  0  0  0  0  0  0
   11.9870   36.9099   29.7714 H   0  0  0  0  0  0  0  0  0  0  0  0
   12.3364   38.3595   34.7453 H   0  0  0  0  0  0  0  0  0  0  0  0
   16.7577   34.1795   32.4622 H   0  0  0  0  0  0  0  0  0  0  0  0
   15.3532   35.7351   37.5144 H   0  0  0  0  0  0  0  0  0  0  0  0
   16.6368   34.5316   37.1418 H   0  0  0  0  0  0  0  0  0  0  0  0
  1  2  2  0
  1  3  1  0
  3  4  1  0
  4  5  1  0
  6  1  1  0
  7  6  1  0
  6  8  1  0
  8  9  1  0
  9 10  1  0
  9 11  2  0
 10 12  1  0
 12 13  1  0
 13 14  2  0
 15 13  1  0
 14 16  1  0
 14 17  1  0
 18 15  2  0
 16 19  1  0
 16 20  2  0
 17 21  2  0
 21 18  1  0
  4 22  2  0
  4 23  1  0
 24 23  1  0
 24 25  1  0
 25 26  1  0
 25 27  1  0
 26 28  1  0
 27 29  1  0
 27 30  1  0
 30 28  1  0
 28 31  1  0
 30 32  1  0
 33 31  1  0
 34 31  1  0
 35 33  2  0
 33 36  1  0
 37 34  2  0
 38 35  1  0
 36 39  2  0
 36 37  1  0
 40 38  2  0
 40 39  1  0
 39 41  1  0
  6 42  1  6
  7 43  1  0
  7 44  1  0
  8 45  1  0
  8 46  1  0
 12 47  1  0
 12 48  1  0
 15 49  1  0
 17 50  1  0
 18 51  1  0
 21 52  1  0
 24 53  1  0
 24 54  1  0
 25 55  1  0
 27 56  1  0
 28 57  1  0
 29 58  1  0
 30 59  1  0
 32 60  1  0
 34 61  1  0
 38 62  1  0
 41 63  1  0
 41 64  1  0
M  CHG  3   5  -1  16   1  19  -1
M  END
>  <EmbedRMS>  (550) 
0.08726688554404116

$$$$

     RDKit          3D

 64 67  0  0  0  0  0  0  0  0999 V2000
   10.2870   43.7694   33.8094 C   0  0  0  0  0  0  0  0  0  0  0  0
   11.4113   43.5796   34.3596 O   0  0  0  0  0  0  0  0  0  0  0  0
    9.3665   42.7306   33.7019 O   0  0  0  0  0  0  0  0  0  0  0  0
    9.8844   41.2327   34.2835 P   0  0  0  0  0  5  0  0  0  0  0  0
   10.3659   41.4676   35.8739 O   0  0  0  0  0  1  0  0  0  0  0  0
    9.9639   45.1119   33.2465 C   0  0  2  0  0  0  0  0  0  0  0  0
   11.0623   46.0525   33.4763 N   0  0  0  0  0  0  0  0  0  0  0  0
    8.6368   45.6721   33.8004 C   0  0  0  0  0  0  0  0  0  0  0  0
    8.6761   45.9507   35.2869 C   0  0  0  0  0  0  0  0  0  0  0  0
    8.5698   47.2388   35.8356 O   0  0  0  0  0  0  0  0  0  0  0  0
    8.7892   44.9782   36.0789 O   0  0  0  0  0  0  0  0  0  0  0  0
    8.3946   48.4510   35.1010 C   0  0  0  0  0  0  0  0  0  0  0  0
    9.6712   48.8597   34.4027 C   0  0  0  0  0  0  0  0  0  0  0  0
   10.9112   48.9696   35.0905 C   0  0  0  0  0  0  0  0  0  0  0  0
    9.6280   49.1228   33.0211 C   0  0  0  0  0  0  0  0  0  0  0  0
   11.0219   48.7471   36.5078 N   0  0  0  0  0  4  0  0  0  0  0  0
   12.0719   49.2844   34.3617 C   0  0  0  0  0  0  0  0  0  0  0  0
   10.7898   49.4486   32.3207 C   0  0  0  0  0  0  0  0  0  0  0  0
   12.1904   48.2467   37.0348 O   0  0  0  0  0  1  0  0  0  0  0  0
   10.1390   49.1565   37.2889 O   0  0  0  0  0  0  0  0  0  0  0  0
   12.0102   49.5223   32.9883 C   0  0  0  0  0  0  0  0  0  0  0  0
    8.8066   40.1903   34.2080 O   0  0  0  0  0  0  0  0  0  0  0  0
   11.2361   40.7900   33.3661 O   0  0  0  0  0  0  0  0  0  0  0  0
   10.9132   40.6842   31.9932 C   0  0  0  0  0  0  0  0  0  0  0  0
   11.5173   39.3773   31.4395 C   0  0  0  0  0  0  0  0  0  0  0  0
   12.7476   39.0870   32.0757 O   0  0  0  0  0  0  0  0  0  0  0  0
   10.6069   38.1851   31.6657 C   0  0  0  0  0  0  0  0  0  0  0  0
   12.9372   37.6812   32.0290 C   0  0  0  0  0  0  0  0  0  0  0  0
    9.6404   38.0882   30.6475 O   0  0  0  0  0  0  0  0  0  0  0  0
   11.5789   37.0134   31.7045 C   0  0  0  0  0  0  0  0  0  0  0  0
   13.4915   37.2182   33.3239 N   0  0  0  0  0  0  0  0  0  0  0  0
   11.6125   36.3389   30.4674 O   0  0  0  0  0  0  0  0  0  0  0  0
   14.4766   36.3272   33.5730 C   0  0  0  0  0  0  0  0  0  0  0  0
   13.1184   37.6317   34.5690 C   0  0  0  0  0  0  0  0  0  0  0  0
   15.2066   35.6139   32.6740 N   0  0  0  0  0  0  0  0  0  0  0  0
   14.6735   36.2274   34.9184 C   0  0  0  0  0  0  0  0  0  0  0  0
   13.8228   37.0455   35.5785 N   0  0  0  0  0  0  0  0  0  0  0  0
   16.1637   34.7593   33.1548 C   0  0  0  0  0  0  0  0  0  0  0  0
   15.6517   35.3491   35.4132 C   0  0  0  0  0  0  0  0  0  0  0  0
   16.3792   34.6308   34.5043 N   0  0  0  0  0  0  0  0  0  0  0  0
   15.9004   35.1932   36.8090 N   0  0  0  0  0  0  0  0  0  0  0  0
    9.8384   44.9870   32.1483 H   0  0  0  0  0  0  0  0  0  0  0  0
   11.9104   45.7273   32.9567 H   0  0  0  0  0  0  0  0  0  0  0  0
   11.3015   46.0946   34.4943 H   0  0  0  0  0  0  0  0  0  0  0  0
    8.3745   46.5799   33.2259 H   0  0  0  0  0  0  0  0  0  0  0  0
    7.8200   44.9445   33.6027 H   0  0  0  0  0  0  0  0  0  0  0  0
    8.1024   49.2571   35.8047 H   0  0  0  0  0  0  0  0  0  0  0  0
    7.5420   48.3434   34.3963 H   0  0  0  0  0  0  0  0  0  0  0  0
    8.6935   49.0598   32.4774 H   0  0  0  0  0  0  0  0  0  0  0  0
   13.0284   49.3622   34.8626 H   0  0  0  0  0  0  0  0  0  0  0  0
   10.7441   49.6382   31.2561 H   0  0  0  0  0  0  0  0  0  0  0  0
   12.9108   49.7704   32.4415 H   0  0  0  0  0  0  0  0  0  0  0  0
    9.8231   40.7188   31.7569 H   0  0  0  0  0  0  0  0  0  0  0  0
   11.3848   41.5415   31.4670 H   0  0  0  0  0  0  0  0  0  0  0  0
   11.7005   39.5019   30.3472 H   0  0  0  0  0  0  0  0  0  0  0  0
   10.1097   38.2750   32.6605 H   0  0  0  0  0  0  0  0  0  0  0  0
   13.6713   37.4593   31.2227 H   0  0  0  0  0  0  0  0  0  0  0  0
    9.0033   37.3834   30.9350 H   0  0  0  0  0  0  0  0  0  0  0  0
   11.2706   36.3048   32.5088 H   0  0  0  0  0  0  0  0  0  0  0  0
   12.1444   35.5137   30.6141 H   0  0  0  0  0  0  0  0  0  0  0  0
   12.3362   38.3592   34.7445 H   0  0  0  0  0  0  0  0  0  0  0  0
   16.7571   34.1787   32.4620 H   0  0  0  0  0  0  0  0  0  0  0  0
   15.3532   35.7355   37.5139 H   0  0  0  0  0  0  0  0  0  0  0  0
   16.6363   34.5314   37.1415 H   0  0  0  0  0  0  0  0  0  0  0  0
  1  2  2  0
  1  3  1  0
  3  4  1  0
  4  5  1  0
  6  1  1  0
  7  6  1  0
  6  8  1  0
  8  9  1  0
  9 10  1  0
  9 11  2  0
 10 12  1  0
 12 13  1  0
 13 14  2  0
 15 13  1  0
 14 16  1  0
 14 17  1  0
 18 15  2  0
 16 19  1  0
 16 20  2  0
 17 21  2  0
 21 18  1  0
  4 22  2  0
  4 23  1  0
 24 23  1  0
 24 25  1  0
 25 26  1  0
 25 27  1  0
 26 28  1  0
 27 29  1  0
 27 30  1  0
 30 28  1  0
 28 31  1  0
 30 32  1  0
 33 31  1  0
 34 31  1  0
 35 33  2  0
 33 36  1  0
 37 34  2  0
 38 35  1  0
 36 39  2  0
 36 37  1  0
 40 38  2  0
 40 39  1  0
 39 41  1  0
  6 42  1  6
  7 43  1  0
  7 44  1  0
  8 45  1  0
  8 46  1  0
 12 47  1  0
 12 48  1  0
 15 49  1  0
 17 50  1  0
 18 51  1  0
 21 52  1  0
 24 53  1  0
 24 54  1  0
 25 55  1  0
 27 56  1  0
 28 57  1  0
 29 58  1  0
 30 59  1  0
 32 60  1  0
 34 61  1  0
 38 62  1  0
 41 63  1  0
 41 64  1  0
M  CHG  3   5  -1  16   1  19  -1
M  END
>  <EmbedRMS>  (551) 
0.0894125766612603

$$$$

     RDKit          3D

 64 67  0  0  0  0  0  0  0  0999 V2000
   10.2822   43.7760   33.8082 C   0  0  0  0  0  0  0  0  0  0  0  0
   11.4081   43.5919   34.3580 O   0  0  0  0  0  0  0  0  0  0  0  0
    9.3669   42.7317   33.7008 O   0  0  0  0  0  0  0  0  0  0  0  0
    9.8866   41.2345   34.2832 P   0  0  0  0  0  5  0  0  0  0  0  0
   10.3677   41.4694   35.8736 O   0  0  0  0  0  1  0  0  0  0  0  0
    9.9521   45.1128   33.2441 C   0  0  2  0  0  0  0  0  0  0  0  0
   11.0739   46.0250   33.4840 N   0  0  0  0  0  0  0  0  0  0  0  0
    8.6403   45.6484   33.8586 C   0  0  0  0  0  0  0  0  0  0  0  0
    8.1487   46.8668   33.1391 C   0  0  0  0  0  0  0  0  0  0  0  0
    8.6432   48.1267   33.4972 O   0  0  0  0  0  0  0  0  0  0  0  0
    7.3154   46.7439   32.2000 O   0  0  0  0  0  0  0  0  0  0  0  0
    8.1921   49.3520   32.9166 C   0  0  0  0  0  0  0  0  0  0  0  0
    9.0839   49.8139   31.7803 C   0  0  0  0  0  0  0  0  0  0  0  0
    9.2613   51.1966   31.5027 C   0  0  0  0  0  0  0  0  0  0  0  0
    9.7326   48.8691   30.9594 C   0  0  0  0  0  0  0  0  0  0  0  0
    8.5399   52.2097   32.2251 N   0  0  0  0  0  4  0  0  0  0  0  0
   10.1484   51.5879   30.4837 C   0  0  0  0  0  0  0  0  0  0  0  0
   10.5941   49.2786   29.9409 C   0  0  0  0  0  0  0  0  0  0  0  0
    7.1979   52.0534   32.4856 O   0  0  0  0  0  1  0  0  0  0  0  0
    9.0704   53.3178   32.4475 O   0  0  0  0  0  0  0  0  0  0  0  0
   10.8119   50.6347   29.7119 C   0  0  0  0  0  0  0  0  0  0  0  0
    8.8088   40.1916   34.2082 O   0  0  0  0  0  0  0  0  0  0  0  0
   11.2378   40.7913   33.3656 O   0  0  0  0  0  0  0  0  0  0  0  0
   10.9143   40.6851   31.9929 C   0  0  0  0  0  0  0  0  0  0  0  0
   11.5166   39.3773   31.4393 C   0  0  0  0  0  0  0  0  0  0  0  0
   12.7472   39.0855   32.0739 O   0  0  0  0  0  0  0  0  0  0  0  0
   10.6047   38.1868   31.6670 C   0  0  0  0  0  0  0  0  0  0  0  0
   12.9345   37.6791   32.0282 C   0  0  0  0  0  0  0  0  0  0  0  0
    9.6378   38.0918   30.6489 O   0  0  0  0  0  0  0  0  0  0  0  0
   11.5761   37.0129   31.7057 C   0  0  0  0  0  0  0  0  0  0  0  0
   13.4909   37.2177   33.3233 N   0  0  0  0  0  0  0  0  0  0  0  0
   11.6234   36.3371   30.4684 O   0  0  0  0  0  0  0  0  0  0  0  0
   14.4765   36.3271   33.5727 C   0  0  0  0  0  0  0  0  0  0  0  0
   13.1182   37.6315   34.5685 C   0  0  0  0  0  0  0  0  0  0  0  0
   15.2066   35.6137   32.6739 N   0  0  0  0  0  0  0  0  0  0  0  0
   14.6735   36.2276   34.9182 C   0  0  0  0  0  0  0  0  0  0  0  0
   13.8227   37.0457   35.5781 N   0  0  0  0  0  0  0  0  0  0  0  0
   16.1638   34.7593   33.1548 C   0  0  0  0  0  0  0  0  0  0  0  0
   15.6517   35.3492   35.4131 C   0  0  0  0  0  0  0  0  0  0  0  0
   16.3792   34.6309   34.5043 N   0  0  0  0  0  0  0  0  0  0  0  0
   15.9002   35.1934   36.8090 N   0  0  0  0  0  0  0  0  0  0  0  0
    9.8178   44.9848   32.1466 H   0  0  0  0  0  0  0  0  0  0  0  0
   10.9480   46.8845   32.9040 H   0  0  0  0  0  0  0  0  0  0  0  0
   11.0853   46.3204   34.4880 H   0  0  0  0  0  0  0  0  0  0  0  0
    8.7875   45.8901   34.9337 H   0  0  0  0  0  0  0  0  0  0  0  0
    7.8492   44.8683   33.8021 H   0  0  0  0  0  0  0  0  0  0  0  0
    7.1420   49.2643   32.5636 H   0  0  0  0  0  0  0  0  0  0  0  0
    8.2111   50.1068   33.7294 H   0  0  0  0  0  0  0  0  0  0  0  0
    9.5856   47.8092   31.1016 H   0  0  0  0  0  0  0  0  0  0  0  0
   10.3048   52.6373   30.2674 H   0  0  0  0  0  0  0  0  0  0  0  0
   11.0957   48.5406   29.3281 H   0  0  0  0  0  0  0  0  0  0  0  0
   11.4827   50.9489   28.9227 H   0  0  0  0  0  0  0  0  0  0  0  0
    9.8242   40.7212   31.7568 H   0  0  0  0  0  0  0  0  0  0  0  0
   11.3868   41.5415   31.4661 H   0  0  0  0  0  0  0  0  0  0  0  0
   11.6987   39.5012   30.3467 H   0  0  0  0  0  0  0  0  0  0  0  0
   10.1096   38.2772   32.6629 H   0  0  0  0  0  0  0  0  0  0  0  0
   13.6672   37.4545   31.2213 H   0  0  0  0  0  0  0  0  0  0  0  0
    8.9779   37.4157   30.9534 H   0  0  0  0  0  0  0  0  0  0  0  0
   11.2860   36.3041   32.5177 H   0  0  0  0  0  0  0  0  0  0  0  0
   10.8690   35.6919   30.4657 H   0  0  0  0  0  0  0  0  0  0  0  0
   12.3356   38.3587   34.7440 H   0  0  0  0  0  0  0  0  0  0  0  0
   16.7572   34.1786   32.4621 H   0  0  0  0  0  0  0  0  0  0  0  0
   16.6361   34.5315   37.1415 H   0  0  0  0  0  0  0  0  0  0  0  0
   15.3530   35.7357   37.5138 H   0  0  0  0  0  0  0  0  0  0  0  0
  1  2  2  0
  1  3  1  0
  3  4  1  0
  4  5  1  0
  6  1  1  0
  7  6  1  0
  6  8  1  0
  8  9  1  0
  9 10  1  0
  9 11  2  0
 10 12  1  0
 12 13  1  0
 13 14  2  0
 15 13  1  0
 14 16  1  0
 14 17  1  0
 18 15  2  0
 16 19  1  0
 16 20  2  0
 17 21  2  0
 21 18  1  0
  4 22  2  0
  4 23  1  0
 24 23  1  0
 24 25  1  0
 25 26  1  0
 25 27  1  0
 26 28  1  0
 27 29  1  0
 27 30  1  0
 30 28  1  0
 28 31  1  0
 30 32  1  0
 33 31  1  0
 34 31  1  0
 35 33  2  0
 33 36  1  0
 37 34  2  0
 38 35  1  0
 36 39  2  0
 36 37  1  0
 40 38  2  0
 40 39  1  0
 39 41  1  0
  6 42  1  6
  7 43  1  0
  7 44  1  0
  8 45  1  0
  8 46  1  0
 12 47  1  0
 12 48  1  0
 15 49  1  0
 17 50  1  0
 18 51  1  0
 21 52  1  0
 24 53  1  0
 24 54  1  0
 25 55  1  0
 27 56  1  0
 28 57  1  0
 29 58  1  0
 30 59  1  0
 32 60  1  0
 34 61  1  0
 38 62  1  0
 41 63  1  0
 41 64  1  0
M  CHG  3   5  -1  16   1  19  -1
M  END
>  <EmbedRMS>  (552) 
0.08873722737603172

$$$$

     RDKit          3D

 64 67  0  0  0  0  0  0  0  0999 V2000
   10.2858   43.7715   33.8030 C   0  0  0  0  0  0  0  0  0  0  0  0
   11.4074   43.5882   34.3613 O   0  0  0  0  0  0  0  0  0  0  0  0
    9.3670   42.7306   33.6991 O   0  0  0  0  0  0  0  0  0  0  0  0
    9.8860   41.2338   34.2839 P   0  0  0  0  0  5  0  0  0  0  0  0
   10.3680   41.4697   35.8740 O   0  0  0  0  0  1  0  0  0  0  0  0
    9.9563   45.1139   33.2458 C   0  0  2  0  0  0  0  0  0  0  0  0
   11.0693   46.0348   33.4839 N   0  0  0  0  0  0  0  0  0  0  0  0
    8.6518   45.6660   33.8571 C   0  0  0  0  0  0  0  0  0  0  0  0
    8.7198   45.7680   35.3517 C   0  0  0  0  0  0  0  0  0  0  0  0
    8.1938   44.7338   36.1301 O   0  0  0  0  0  0  0  0  0  0  0  0
    9.2824   46.7596   35.8912 O   0  0  0  0  0  0  0  0  0  0  0  0
    8.3316   44.6855   37.5475 C   0  0  0  0  0  0  0  0  0  0  0  0
    7.6548   43.4617   38.1253 C   0  0  0  0  0  0  0  0  0  0  0  0
    7.2821   43.4057   39.4951 C   0  0  0  0  0  0  0  0  0  0  0  0
    7.4035   42.3434   37.3038 C   0  0  0  0  0  0  0  0  0  0  0  0
    7.5747   44.4834   40.4033 N   0  0  0  0  0  4  0  0  0  0  0  0
    6.6141   42.2662   39.9801 C   0  0  0  0  0  0  0  0  0  0  0  0
    6.7570   41.2158   37.8104 C   0  0  0  0  0  0  0  0  0  0  0  0
    8.7840   45.1368   40.3464 O   0  0  0  0  0  1  0  0  0  0  0  0
    6.8101   44.7194   41.3617 O   0  0  0  0  0  0  0  0  0  0  0  0
    6.3549   41.1807   39.1433 C   0  0  0  0  0  0  0  0  0  0  0  0
    8.8083   40.1911   34.2093 O   0  0  0  0  0  0  0  0  0  0  0  0
   11.2384   40.7897   33.3685 O   0  0  0  0  0  0  0  0  0  0  0  0
   10.9192   40.6893   31.9948 C   0  0  0  0  0  0  0  0  0  0  0  0
   11.5170   39.3800   31.4396 C   0  0  0  0  0  0  0  0  0  0  0  0
   12.7478   39.0861   32.0733 O   0  0  0  0  0  0  0  0  0  0  0  0
   10.6031   38.1891   31.6666 C   0  0  0  0  0  0  0  0  0  0  0  0
   12.9335   37.6796   32.0279 C   0  0  0  0  0  0  0  0  0  0  0  0
    9.6396   38.0776   30.6457 O   0  0  0  0  0  0  0  0  0  0  0  0
   11.5739   37.0154   31.7057 C   0  0  0  0  0  0  0  0  0  0  0  0
   13.4903   37.2178   33.3231 N   0  0  0  0  0  0  0  0  0  0  0  0
   11.6210   36.3376   30.4695 O   0  0  0  0  0  0  0  0  0  0  0  0
   14.4761   36.3273   33.5725 C   0  0  0  0  0  0  0  0  0  0  0  0
   13.1178   37.6317   34.5684 C   0  0  0  0  0  0  0  0  0  0  0  0
   15.2063   35.6139   32.6737 N   0  0  0  0  0  0  0  0  0  0  0  0
   14.6733   36.2278   34.9180 C   0  0  0  0  0  0  0  0  0  0  0  0
   13.8225   37.0459   35.5779 N   0  0  0  0  0  0  0  0  0  0  0  0
   16.1636   34.7595   33.1546 C   0  0  0  0  0  0  0  0  0  0  0  0
   15.6515   35.3494   35.4129 C   0  0  0  0  0  0  0  0  0  0  0  0
   16.3791   34.6311   34.5041 N   0  0  0  0  0  0  0  0  0  0  0  0
   15.9001   35.1935   36.8088 N   0  0  0  0  0  0  0  0  0  0  0  0
    9.8049   45.0031   32.1484 H   0  0  0  0  0  0  0  0  0  0  0  0
   10.8137   46.9715   33.0943 H   0  0  0  0  0  0  0  0  0  0  0  0
   11.8906   45.7136   32.9201 H   0  0  0  0  0  0  0  0  0  0  0  0
    7.8033   45.0043   33.5772 H   0  0  0  0  0  0  0  0  0  0  0  0
    8.4327   46.6687   33.4301 H   0  0  0  0  0  0  0  0  0  0  0  0
    7.8728   45.6032   37.9751 H   0  0  0  0  0  0  0  0  0  0  0  0
    9.4115   44.6559   37.8080 H   0  0  0  0  0  0  0  0  0  0  0  0
    7.6953   42.3403   36.2623 H   0  0  0  0  0  0  0  0  0  0  0  0
    6.3140   42.2082   41.0188 H   0  0  0  0  0  0  0  0  0  0  0  0
    6.5640   40.3682   37.1653 H   0  0  0  0  0  0  0  0  0  0  0  0
    5.8503   40.3058   39.5326 H   0  0  0  0  0  0  0  0  0  0  0  0
    9.8313   40.7394   31.7549 H   0  0  0  0  0  0  0  0  0  0  0  0
   11.4008   41.5437   31.4730 H   0  0  0  0  0  0  0  0  0  0  0  0
   11.6981   39.5042   30.3470 H   0  0  0  0  0  0  0  0  0  0  0  0
   10.1090   38.2632   32.6650 H   0  0  0  0  0  0  0  0  0  0  0  0
   13.6655   37.4540   31.2207 H   0  0  0  0  0  0  0  0  0  0  0  0
    8.8963   38.6896   30.8854 H   0  0  0  0  0  0  0  0  0  0  0  0
   11.2846   36.3060   32.5175 H   0  0  0  0  0  0  0  0  0  0  0  0
   10.8523   35.7094   30.4590 H   0  0  0  0  0  0  0  0  0  0  0  0
   12.3352   38.3588   34.7440 H   0  0  0  0  0  0  0  0  0  0  0  0
   16.7570   34.1788   32.4619 H   0  0  0  0  0  0  0  0  0  0  0  0
   16.6360   34.5317   37.1413 H   0  0  0  0  0  0  0  0  0  0  0  0
   15.3529   35.7359   37.5136 H   0  0  0  0  0  0  0  0  0  0  0  0
  1  2  2  0
  1  3  1  0
  3  4  1  0
  4  5  1  0
  6  1  1  0
  7  6  1  0
  6  8  1  0
  8  9  1  0
  9 10  1  0
  9 11  2  0
 10 12  1  0
 12 13  1  0
 13 14  2  0
 15 13  1  0
 14 16  1  0
 14 17  1  0
 18 15  2  0
 16 19  1  0
 16 20  2  0
 17 21  2  0
 21 18  1  0
  4 22  2  0
  4 23  1  0
 24 23  1  0
 24 25  1  0
 25 26  1  0
 25 27  1  0
 26 28  1  0
 27 29  1  0
 27 30  1  0
 30 28  1  0
 28 31  1  0
 30 32  1  0
 33 31  1  0
 34 31  1  0
 35 33  2  0
 33 36  1  0
 37 34  2  0
 38 35  1  0
 36 39  2  0
 36 37  1  0
 40 38  2  0
 40 39  1  0
 39 41  1  0
  6 42  1  6
  7 43  1  0
  7 44  1  0
  8 45  1  0
  8 46  1  0
 12 47  1  0
 12 48  1  0
 15 49  1  0
 17 50  1  0
 18 51  1  0
 21 52  1  0
 24 53  1  0
 24 54  1  0
 25 55  1  0
 27 56  1  0
 28 57  1  0
 29 58  1  0
 30 59  1  0
 32 60  1  0
 34 61  1  0
 38 62  1  0
 41 63  1  0
 41 64  1  0
M  CHG  3   5  -1  16   1  19  -1
M  END
>  <EmbedRMS>  (553) 
0.08931361183240945

$$$$

     RDKit          3D

 64 67  0  0  0  0  0  0  0  0999 V2000
   10.2862   43.7710   33.8102 C   0  0  0  0  0  0  0  0  0  0  0  0
   11.4100   43.5817   34.3618 O   0  0  0  0  0  0  0  0  0  0  0  0
    9.3666   42.7311   33.7023 O   0  0  0  0  0  0  0  0  0  0  0  0
    9.8842   41.2332   34.2846 P   0  0  0  0  0  5  0  0  0  0  0  0
   10.3652   41.4677   35.8751 O   0  0  0  0  0  1  0  0  0  0  0  0
    9.9611   45.1122   33.2469 C   0  0  2  0  0  0  0  0  0  0  0  0
   11.0653   46.0482   33.4748 N   0  0  0  0  0  0  0  0  0  0  0  0
    8.6650   45.6574   33.8695 C   0  0  0  0  0  0  0  0  0  0  0  0
    8.2720   46.9571   33.2390 C   0  0  0  0  0  0  0  0  0  0  0  0
    7.7215   46.9559   31.9547 O   0  0  0  0  0  0  0  0  0  0  0  0
    8.4699   48.0403   33.8544 O   0  0  0  0  0  0  0  0  0  0  0  0
    7.3557   48.1519   31.2713 C   0  0  0  0  0  0  0  0  0  0  0  0
    6.8428   47.8431   29.8832 C   0  0  0  0  0  0  0  0  0  0  0  0
    5.8936   48.6799   29.2387 C   0  0  0  0  0  0  0  0  0  0  0  0
    7.3385   46.7170   29.1959 C   0  0  0  0  0  0  0  0  0  0  0  0
    5.4320   49.9014   29.8419 N   0  0  0  0  0  4  0  0  0  0  0  0
    5.4055   48.3164   27.9704 C   0  0  0  0  0  0  0  0  0  0  0  0
    6.8550   46.3846   27.9298 C   0  0  0  0  0  0  0  0  0  0  0  0
    6.3191   50.7440   30.4713 O   0  0  0  0  0  1  0  0  0  0  0  0
    4.2673   50.3007   29.6351 O   0  0  0  0  0  0  0  0  0  0  0  0
    5.8817   47.1757   27.3234 C   0  0  0  0  0  0  0  0  0  0  0  0
    8.8068   40.1904   34.2082 O   0  0  0  0  0  0  0  0  0  0  0  0
   11.2363   40.7903   33.3689 O   0  0  0  0  0  0  0  0  0  0  0  0
   10.9152   40.6897   31.9958 C   0  0  0  0  0  0  0  0  0  0  0  0
   11.5269   39.3898   31.4373 C   0  0  0  0  0  0  0  0  0  0  0  0
   12.7506   39.0917   32.0839 O   0  0  0  0  0  0  0  0  0  0  0  0
   10.6121   38.1915   31.6451 C   0  0  0  0  0  0  0  0  0  0  0  0
   12.9429   37.6853   32.0295 C   0  0  0  0  0  0  0  0  0  0  0  0
    9.6069   38.0857   30.6602 O   0  0  0  0  0  0  0  0  0  0  0  0
   11.5845   37.0186   31.6879 C   0  0  0  0  0  0  0  0  0  0  0  0
   13.4898   37.2163   33.3250 N   0  0  0  0  0  0  0  0  0  0  0  0
   11.6202   36.3062   30.4693 O   0  0  0  0  0  0  0  0  0  0  0  0
   14.4758   36.3263   33.5738 C   0  0  0  0  0  0  0  0  0  0  0  0
   13.1175   37.6307   34.5699 C   0  0  0  0  0  0  0  0  0  0  0  0
   15.2065   35.6139   32.6746 N   0  0  0  0  0  0  0  0  0  0  0  0
   14.6731   36.2267   34.9191 C   0  0  0  0  0  0  0  0  0  0  0  0
   13.8224   37.0450   35.5792 N   0  0  0  0  0  0  0  0  0  0  0  0
   16.1640   34.7596   33.1551 C   0  0  0  0  0  0  0  0  0  0  0  0
   15.6518   35.3489   35.4136 C   0  0  0  0  0  0  0  0  0  0  0  0
   16.3795   34.6310   34.5046 N   0  0  0  0  0  0  0  0  0  0  0  0
   15.9006   35.1931   36.8094 N   0  0  0  0  0  0  0  0  0  0  0  0
    9.8117   44.9938   32.1504 H   0  0  0  0  0  0  0  0  0  0  0  0
   11.9219   45.7027   32.9827 H   0  0  0  0  0  0  0  0  0  0  0  0
   11.2749   46.1184   34.4982 H   0  0  0  0  0  0  0  0  0  0  0  0
    8.7945   45.7921   34.9664 H   0  0  0  0  0  0  0  0  0  0  0  0
    7.8364   44.9331   33.7120 H   0  0  0  0  0  0  0  0  0  0  0  0
    6.5683   48.6592   31.8685 H   0  0  0  0  0  0  0  0  0  0  0  0
    8.2406   48.8188   31.1862 H   0  0  0  0  0  0  0  0  0  0  0  0
    8.0953   46.0841   29.6424 H   0  0  0  0  0  0  0  0  0  0  0  0
    4.6727   48.9353   27.4680 H   0  0  0  0  0  0  0  0  0  0  0  0
    7.2348   45.5092   27.4187 H   0  0  0  0  0  0  0  0  0  0  0  0
    5.5067   46.9139   26.3424 H   0  0  0  0  0  0  0  0  0  0  0  0
    9.8251   40.7191   31.7585 H   0  0  0  0  0  0  0  0  0  0  0  0
   11.3822   41.5526   31.4746 H   0  0  0  0  0  0  0  0  0  0  0  0
   11.7317   39.5337   30.3519 H   0  0  0  0  0  0  0  0  0  0  0  0
   10.1214   38.2682   32.6412 H   0  0  0  0  0  0  0  0  0  0  0  0
   13.6882   37.4709   31.2319 H   0  0  0  0  0  0  0  0  0  0  0  0
   10.0256   38.1750   29.7656 H   0  0  0  0  0  0  0  0  0  0  0  0
   11.2796   36.3123   32.4915 H   0  0  0  0  0  0  0  0  0  0  0  0
   11.9872   36.9099   29.7714 H   0  0  0  0  0  0  0  0  0  0  0  0
   12.3364   38.3594   34.7454 H   0  0  0  0  0  0  0  0  0  0  0  0
   16.7576   34.1794   32.4622 H   0  0  0  0  0  0  0  0  0  0  0  0
   16.6368   34.5316   37.1418 H   0  0  0  0  0  0  0  0  0  0  0  0
   15.3532   35.7351   37.5143 H   0  0  0  0  0  0  0  0  0  0  0  0
  1  2  2  0
  1  3  1  0
  3  4  1  0
  4  5  1  0
  6  1  1  0
  7  6  1  0
  6  8  1  0
  8  9  1  0
  9 10  1  0
  9 11  2  0
 10 12  1  0
 12 13  1  0
 13 14  2  0
 15 13  1  0
 14 16  1  0
 14 17  1  0
 18 15  2  0
 16 19  1  0
 16 20  2  0
 17 21  2  0
 21 18  1  0
  4 22  2  0
  4 23  1  0
 24 23  1  0
 24 25  1  0
 25 26  1  0
 25 27  1  0
 26 28  1  0
 27 29  1  0
 27 30  1  0
 30 28  1  0
 28 31  1  0
 30 32  1  0
 33 31  1  0
 34 31  1  0
 35 33  2  0
 33 36  1  0
 37 34  2  0
 38 35  1  0
 36 39  2  0
 36 37  1  0
 40 38  2  0
 40 39  1  0
 39 41  1  0
  6 42  1  6
  7 43  1  0
  7 44  1  0
  8 45  1  0
  8 46  1  0
 12 47  1  0
 12 48  1  0
 15 49  1  0
 17 50  1  0
 18 51  1  0
 21 52  1  0
 24 53  1  0
 24 54  1  0
 25 55  1  0
 27 56  1  0
 28 57  1  0
 29 58  1  0
 30 59  1  0
 32 60  1  0
 34 61  1  0
 38 62  1  0
 41 63  1  0
 41 64  1  0
M  CHG  3   5  -1  16   1  19  -1
M  END
>  <EmbedRMS>  (554) 
0.08751582622799227

$$$$

     RDKit          3D

 64 67  0  0  0  0  0  0  0  0999 V2000
   10.2817   43.7761   33.8111 C   0  0  0  0  0  0  0  0  0  0  0  0
   11.4044   43.5931   34.3676 O   0  0  0  0  0  0  0  0  0  0  0  0
    9.3701   42.7294   33.7035 O   0  0  0  0  0  0  0  0  0  0  0  0
    9.8870   41.2327   34.2843 P   0  0  0  0  0  5  0  0  0  0  0  0
   10.3677   41.4669   35.8748 O   0  0  0  0  0  1  0  0  0  0  0  0
    9.9558   45.1173   33.2390 C   0  0  2  0  0  0  0  0  0  0  0  0
   11.0755   46.0289   33.4806 N   0  0  0  0  0  0  0  0  0  0  0  0
    8.6684   45.6995   33.8686 C   0  0  0  0  0  0  0  0  0  0  0  0
    7.4196   44.9587   33.4793 C   0  0  0  0  0  0  0  0  0  0  0  0
    7.4255   44.1052   32.3725 O   0  0  0  0  0  0  0  0  0  0  0  0
    6.3630   45.1361   34.1441 O   0  0  0  0  0  0  0  0  0  0  0  0
    6.3082   43.3149   31.9844 C   0  0  0  0  0  0  0  0  0  0  0  0
    6.7544   42.2901   30.9712 C   0  0  0  0  0  0  0  0  0  0  0  0
    7.4542   42.6516   29.7868 C   0  0  0  0  0  0  0  0  0  0  0  0
    6.5219   40.9286   31.2417 C   0  0  0  0  0  0  0  0  0  0  0  0
    7.7180   44.0243   29.4429 N   0  0  0  0  0  4  0  0  0  0  0  0
    7.9226   41.6377   28.9327 C   0  0  0  0  0  0  0  0  0  0  0  0
    6.9777   39.9407   30.3688 C   0  0  0  0  0  0  0  0  0  0  0  0
    8.8398   44.3463   28.7140 O   0  0  0  0  0  1  0  0  0  0  0  0
    6.8668   44.9115   29.6564 O   0  0  0  0  0  0  0  0  0  0  0  0
    7.6806   40.2942   29.2193 C   0  0  0  0  0  0  0  0  0  0  0  0
    8.8079   40.1915   34.2071 O   0  0  0  0  0  0  0  0  0  0  0  0
   11.2371   40.7908   33.3658 O   0  0  0  0  0  0  0  0  0  0  0  0
   10.9119   40.6876   31.9936 C   0  0  0  0  0  0  0  0  0  0  0  0
   11.5244   39.3870   31.4355 C   0  0  0  0  0  0  0  0  0  0  0  0
   12.7479   39.0901   32.0813 O   0  0  0  0  0  0  0  0  0  0  0  0
   10.6120   38.1884   31.6458 C   0  0  0  0  0  0  0  0  0  0  0  0
   12.9371   37.6834   32.0300 C   0  0  0  0  0  0  0  0  0  0  0  0
    9.6166   38.0796   30.6531 O   0  0  0  0  0  0  0  0  0  0  0  0
   11.5796   37.0136   31.7017 C   0  0  0  0  0  0  0  0  0  0  0  0
   13.4909   37.2177   33.3241 N   0  0  0  0  0  0  0  0  0  0  0  0
   11.6222   36.3248   30.4731 O   0  0  0  0  0  0  0  0  0  0  0  0
   14.4763   36.3270   33.5730 C   0  0  0  0  0  0  0  0  0  0  0  0
   13.1182   37.6312   34.5693 C   0  0  0  0  0  0  0  0  0  0  0  0
   15.2065   35.6140   32.6739 N   0  0  0  0  0  0  0  0  0  0  0  0
   14.6734   36.2271   34.9184 C   0  0  0  0  0  0  0  0  0  0  0  0
   13.8228   37.0452   35.5787 N   0  0  0  0  0  0  0  0  0  0  0  0
   16.1637   34.7594   33.1546 C   0  0  0  0  0  0  0  0  0  0  0  0
   15.6517   35.3490   35.4131 C   0  0  0  0  0  0  0  0  0  0  0  0
   16.3793   34.6309   34.5041 N   0  0  0  0  0  0  0  0  0  0  0  0
   15.9004   35.1932   36.8089 N   0  0  0  0  0  0  0  0  0  0  0  0
    9.8154   45.0098   32.1392 H   0  0  0  0  0  0  0  0  0  0  0  0
   10.8406   46.9621   33.0703 H   0  0  0  0  0  0  0  0  0  0  0  0
   11.9022   45.6904   32.9346 H   0  0  0  0  0  0  0  0  0  0  0  0
    8.5418   46.7531   33.5393 H   0  0  0  0  0  0  0  0  0  0  0  0
    8.7647   45.7030   34.9767 H   0  0  0  0  0  0  0  0  0  0  0  0
    5.8846   42.8166   32.8845 H   0  0  0  0  0  0  0  0  0  0  0  0
    5.5137   43.9599   31.5544 H   0  0  0  0  0  0  0  0  0  0  0  0
    5.9958   40.6257   32.1386 H   0  0  0  0  0  0  0  0  0  0  0  0
    8.4635   41.8892   28.0293 H   0  0  0  0  0  0  0  0  0  0  0  0
    6.7936   38.8973   30.5900 H   0  0  0  0  0  0  0  0  0  0  0  0
    8.0383   39.5253   28.5468 H   0  0  0  0  0  0  0  0  0  0  0  0
    9.8209   40.7155   31.7589 H   0  0  0  0  0  0  0  0  0  0  0  0
   11.3753   41.5505   31.4692 H   0  0  0  0  0  0  0  0  0  0  0  0
   11.7270   39.5288   30.3494 H   0  0  0  0  0  0  0  0  0  0  0  0
   10.1123   38.2713   32.6369 H   0  0  0  0  0  0  0  0  0  0  0  0
   13.6723   37.4646   31.2238 H   0  0  0  0  0  0  0  0  0  0  0  0
   10.0550   38.1088   29.7633 H   0  0  0  0  0  0  0  0  0  0  0  0
   11.2652   36.3136   32.5113 H   0  0  0  0  0  0  0  0  0  0  0  0
   12.1556   35.5029   30.6325 H   0  0  0  0  0  0  0  0  0  0  0  0
   12.3362   38.3590   34.7450 H   0  0  0  0  0  0  0  0  0  0  0  0
   16.7571   34.1789   32.4618 H   0  0  0  0  0  0  0  0  0  0  0  0
   15.3532   35.7354   37.5138 H   0  0  0  0  0  0  0  0  0  0  0  0
   16.6364   34.5314   37.1414 H   0  0  0  0  0  0  0  0  0  0  0  0
  1  2  2  0
  1  3  1  0
  3  4  1  0
  4  5  1  0
  6  1  1  0
  7  6  1  0
  6  8  1  0
  8  9  1  0
  9 10  1  0
  9 11  2  0
 10 12  1  0
 12 13  1  0
 13 14  2  0
 15 13  1  0
 14 16  1  0
 14 17  1  0
 18 15  2  0
 16 19  1  0
 16 20  2  0
 17 21  2  0
 21 18  1  0
  4 22  2  0
  4 23  1  0
 24 23  1  0
 24 25  1  0
 25 26  1  0
 25 27  1  0
 26 28  1  0
 27 29  1  0
 27 30  1  0
 30 28  1  0
 28 31  1  0
 30 32  1  0
 33 31  1  0
 34 31  1  0
 35 33  2  0
 33 36  1  0
 37 34  2  0
 38 35  1  0
 36 39  2  0
 36 37  1  0
 40 38  2  0
 40 39  1  0
 39 41  1  0
  6 42  1  6
  7 43  1  0
  7 44  1  0
  8 45  1  0
  8 46  1  0
 12 47  1  0
 12 48  1  0
 15 49  1  0
 17 50  1  0
 18 51  1  0
 21 52  1  0
 24 53  1  0
 24 54  1  0
 25 55  1  0
 27 56  1  0
 28 57  1  0
 29 58  1  0
 30 59  1  0
 32 60  1  0
 34 61  1  0
 38 62  1  0
 41 63  1  0
 41 64  1  0
M  CHG  3   5  -1  16   1  19  -1
M  END
>  <EmbedRMS>  (555) 
0.0882697889379209

$$$$

     RDKit          3D

 64 67  0  0  0  0  0  0  0  0999 V2000
   10.2861   43.7709   33.8031 C   0  0  0  0  0  0  0  0  0  0  0  0
   11.4100   43.5881   34.3568 O   0  0  0  0  0  0  0  0  0  0  0  0
    9.3671   42.7304   33.7003 O   0  0  0  0  0  0  0  0  0  0  0  0
    9.8862   41.2350   34.2863 P   0  0  0  0  0  5  0  0  0  0  0  0
   10.3656   41.4736   35.8767 O   0  0  0  0  0  1  0  0  0  0  0  0
    9.9607   45.1071   33.2343 C   0  0  2  0  0  0  0  0  0  0  0  0
   11.0620   46.0366   33.4936 N   0  0  0  0  0  0  0  0  0  0  0  0
    8.6064   45.6524   33.7478 C   0  0  0  0  0  0  0  0  0  0  0  0
    8.4531   45.5497   35.2379 C   0  0  0  0  0  0  0  0  0  0  0  0
    9.0676   46.4953   36.0682 O   0  0  0  0  0  0  0  0  0  0  0  0
    7.8045   44.5853   35.7300 O   0  0  0  0  0  0  0  0  0  0  0  0
    9.0535   46.4136   37.4936 C   0  0  0  0  0  0  0  0  0  0  0  0
    9.8110   45.1936   37.9710 C   0  0  0  0  0  0  0  0  0  0  0  0
    9.2634   44.2699   38.8975 C   0  0  0  0  0  0  0  0  0  0  0  0
   11.1353   45.0156   37.5317 C   0  0  0  0  0  0  0  0  0  0  0  0
    7.9180   44.3948   39.3785 N   0  0  0  0  0  4  0  0  0  0  0  0
   10.0515   43.2003   39.3560 C   0  0  0  0  0  0  0  0  0  0  0  0
   11.8977   43.9366   37.9829 C   0  0  0  0  0  0  0  0  0  0  0  0
    6.8665   44.3379   38.4905 O   0  0  0  0  0  1  0  0  0  0  0  0
    7.6834   44.2698   40.5986 O   0  0  0  0  0  0  0  0  0  0  0  0
   11.3575   43.0308   38.8952 C   0  0  0  0  0  0  0  0  0  0  0  0
    8.8089   40.1919   34.2105 O   0  0  0  0  0  0  0  0  0  0  0  0
   11.2389   40.7912   33.3709 O   0  0  0  0  0  0  0  0  0  0  0  0
   10.9192   40.6905   31.9973 C   0  0  0  0  0  0  0  0  0  0  0  0
   11.5174   39.3825   31.4414 C   0  0  0  0  0  0  0  0  0  0  0  0
   12.7493   39.0895   32.0757 O   0  0  0  0  0  0  0  0  0  0  0  0
   10.6033   38.1901   31.6663 C   0  0  0  0  0  0  0  0  0  0  0  0
   12.9400   37.6838   32.0276 C   0  0  0  0  0  0  0  0  0  0  0  0
    9.6379   38.0771   30.6474 O   0  0  0  0  0  0  0  0  0  0  0  0
   11.5797   37.0205   31.6947 C   0  0  0  0  0  0  0  0  0  0  0  0
   13.4911   37.2186   33.3233 N   0  0  0  0  0  0  0  0  0  0  0  0
   11.6107   36.3196   30.4689 O   0  0  0  0  0  0  0  0  0  0  0  0
   14.4769   36.3282   33.5726 C   0  0  0  0  0  0  0  0  0  0  0  0
   13.1182   37.6325   34.5680 C   0  0  0  0  0  0  0  0  0  0  0  0
   15.2079   35.6156   32.6737 N   0  0  0  0  0  0  0  0  0  0  0  0
   14.6728   36.2275   34.9181 C   0  0  0  0  0  0  0  0  0  0  0  0
   13.8218   37.0458   35.5779 N   0  0  0  0  0  0  0  0  0  0  0  0
   16.1639   34.7597   33.1546 C   0  0  0  0  0  0  0  0  0  0  0  0
   15.6500   35.3480   35.4130 C   0  0  0  0  0  0  0  0  0  0  0  0
   16.3777   34.6297   34.5042 N   0  0  0  0  0  0  0  0  0  0  0  0
   15.8989   35.1922   36.8087 N   0  0  0  0  0  0  0  0  0  0  0  0
    9.8765   44.9787   32.1327 H   0  0  0  0  0  0  0  0  0  0  0  0
   11.0969   46.2750   34.5099 H   0  0  0  0  0  0  0  0  0  0  0  0
   10.8810   46.9251   32.9721 H   0  0  0  0  0  0  0  0  0  0  0  0
    7.7822   45.0848   33.2612 H   0  0  0  0  0  0  0  0  0  0  0  0
    8.4881   46.7144   33.4417 H   0  0  0  0  0  0  0  0  0  0  0  0
    9.5513   47.3181   37.9022 H   0  0  0  0  0  0  0  0  0  0  0  0
    8.0054   46.4397   37.8519 H   0  0  0  0  0  0  0  0  0  0  0  0
   11.5819   45.7202   36.8431 H   0  0  0  0  0  0  0  0  0  0  0  0
    9.6428   42.4865   40.0608 H   0  0  0  0  0  0  0  0  0  0  0  0
   12.9125   43.8078   37.6311 H   0  0  0  0  0  0  0  0  0  0  0  0
   11.9515   42.1961   39.2489 H   0  0  0  0  0  0  0  0  0  0  0  0
    9.8314   40.7381   31.7587 H   0  0  0  0  0  0  0  0  0  0  0  0
   11.3991   41.5452   31.4743 H   0  0  0  0  0  0  0  0  0  0  0  0
   11.6987   39.5093   30.3490 H   0  0  0  0  0  0  0  0  0  0  0  0
   10.1124   38.2610   32.6664 H   0  0  0  0  0  0  0  0  0  0  0  0
   13.6798   37.4641   31.2264 H   0  0  0  0  0  0  0  0  0  0  0  0
    8.8949   38.6891   30.8872 H   0  0  0  0  0  0  0  0  0  0  0  0
   11.2808   36.3064   32.4939 H   0  0  0  0  0  0  0  0  0  0  0  0
   11.8847   36.9598   29.7606 H   0  0  0  0  0  0  0  0  0  0  0  0
   12.3374   38.3618   34.7422 H   0  0  0  0  0  0  0  0  0  0  0  0
   16.7581   34.1800   32.4619 H   0  0  0  0  0  0  0  0  0  0  0  0
   15.3535   35.7363   37.5137 H   0  0  0  0  0  0  0  0  0  0  0  0
   16.6368   34.5322   37.1404 H   0  0  0  0  0  0  0  0  0  0  0  0
  1  2  2  0
  1  3  1  0
  3  4  1  0
  4  5  1  0
  6  1  1  0
  7  6  1  0
  6  8  1  0
  8  9  1  0
  9 10  1  0
  9 11  2  0
 10 12  1  0
 12 13  1  0
 13 14  2  0
 15 13  1  0
 14 16  1  0
 14 17  1  0
 18 15  2  0
 16 19  1  0
 16 20  2  0
 17 21  2  0
 21 18  1  0
  4 22  2  0
  4 23  1  0
 24 23  1  0
 24 25  1  0
 25 26  1  0
 25 27  1  0
 26 28  1  0
 27 29  1  0
 27 30  1  0
 30 28  1  0
 28 31  1  0
 30 32  1  0
 33 31  1  0
 34 31  1  0
 35 33  2  0
 33 36  1  0
 37 34  2  0
 38 35  1  0
 36 39  2  0
 36 37  1  0
 40 38  2  0
 40 39  1  0
 39 41  1  0
  6 42  1  6
  7 43  1  0
  7 44  1  0
  8 45  1  0
  8 46  1  0
 12 47  1  0
 12 48  1  0
 15 49  1  0
 17 50  1  0
 18 51  1  0
 21 52  1  0
 24 53  1  0
 24 54  1  0
 25 55  1  0
 27 56  1  0
 28 57  1  0
 29 58  1  0
 30 59  1  0
 32 60  1  0
 34 61  1  0
 38 62  1  0
 41 63  1  0
 41 64  1  0
M  CHG  3   5  -1  16   1  19  -1
M  END
>  <EmbedRMS>  (556) 
0.08796580244296069

$$$$

     RDKit          3D

 64 67  0  0  0  0  0  0  0  0999 V2000
   10.2830   43.7754   33.8077 C   0  0  0  0  0  0  0  0  0  0  0  0
   11.4087   43.5914   34.3579 O   0  0  0  0  0  0  0  0  0  0  0  0
    9.3670   42.7317   33.7012 O   0  0  0  0  0  0  0  0  0  0  0  0
    9.8865   41.2344   34.2838 P   0  0  0  0  0  5  0  0  0  0  0  0
   10.3666   41.4694   35.8744 O   0  0  0  0  0  1  0  0  0  0  0  0
    9.9538   45.1115   33.2431 C   0  0  2  0  0  0  0  0  0  0  0  0
   11.0722   46.0271   33.4849 N   0  0  0  0  0  0  0  0  0  0  0  0
    8.6402   45.6442   33.8531 C   0  0  0  0  0  0  0  0  0  0  0  0
    8.2174   46.9267   33.2072 C   0  0  0  0  0  0  0  0  0  0  0  0
    7.6739   46.8975   31.9184 O   0  0  0  0  0  0  0  0  0  0  0  0
    8.3872   48.0193   33.8134 O   0  0  0  0  0  0  0  0  0  0  0  0
    7.1918   48.0542   31.2374 C   0  0  0  0  0  0  0  0  0  0  0  0
    5.8650   48.4946   31.8085 C   0  0  0  0  0  0  0  0  0  0  0  0
    4.6411   47.8652   31.4542 C   0  0  0  0  0  0  0  0  0  0  0  0
    5.8456   49.5781   32.7059 C   0  0  0  0  0  0  0  0  0  0  0  0
    4.5938   46.7474   30.5480 N   0  0  0  0  0  4  0  0  0  0  0  0
    3.4375   48.3611   31.9894 C   0  0  0  0  0  0  0  0  0  0  0  0
    4.6420   50.0435   33.2362 C   0  0  0  0  0  0  0  0  0  0  0  0
    5.5420   45.7531   30.6064 O   0  0  0  0  0  1  0  0  0  0  0  0
    3.6002   46.5832   29.8100 O   0  0  0  0  0  0  0  0  0  0  0  0
    3.4401   49.4386   32.8759 C   0  0  0  0  0  0  0  0  0  0  0  0
    8.8090   40.1914   34.2077 O   0  0  0  0  0  0  0  0  0  0  0  0
   11.2390   40.7909   33.3682 O   0  0  0  0  0  0  0  0  0  0  0  0
   10.9194   40.6896   31.9946 C   0  0  0  0  0  0  0  0  0  0  0  0
   11.5171   39.3801   31.4397 C   0  0  0  0  0  0  0  0  0  0  0  0
   12.7478   39.0861   32.0734 O   0  0  0  0  0  0  0  0  0  0  0  0
   10.6031   38.1891   31.6666 C   0  0  0  0  0  0  0  0  0  0  0  0
   12.9335   37.6796   32.0280 C   0  0  0  0  0  0  0  0  0  0  0  0
    9.6397   38.0777   30.6456 O   0  0  0  0  0  0  0  0  0  0  0  0
   11.5739   37.0154   31.7057 C   0  0  0  0  0  0  0  0  0  0  0  0
   13.4903   37.2178   33.3231 N   0  0  0  0  0  0  0  0  0  0  0  0
   11.6211   36.3376   30.4695 O   0  0  0  0  0  0  0  0  0  0  0  0
   14.4761   36.3273   33.5725 C   0  0  0  0  0  0  0  0  0  0  0  0
   13.1179   37.6316   34.5684 C   0  0  0  0  0  0  0  0  0  0  0  0
   15.2063   35.6139   32.6737 N   0  0  0  0  0  0  0  0  0  0  0  0
   14.6733   36.2277   34.9180 C   0  0  0  0  0  0  0  0  0  0  0  0
   13.8225   37.0459   35.5779 N   0  0  0  0  0  0  0  0  0  0  0  0
   16.1636   34.7594   33.1546 C   0  0  0  0  0  0  0  0  0  0  0  0
   15.6515   35.3494   35.4129 C   0  0  0  0  0  0  0  0  0  0  0  0
   16.3791   34.6311   34.5041 N   0  0  0  0  0  0  0  0  0  0  0  0
   15.9001   35.1935   36.8088 N   0  0  0  0  0  0  0  0  0  0  0  0
    9.8221   44.9843   32.1453 H   0  0  0  0  0  0  0  0  0  0  0  0
   11.0795   46.3203   34.4897 H   0  0  0  0  0  0  0  0  0  0  0  0
   10.9377   46.8881   32.9067 H   0  0  0  0  0  0  0  0  0  0  0  0
    8.7568   45.7914   34.9497 H   0  0  0  0  0  0  0  0  0  0  0  0
    7.8267   44.9022   33.6996 H   0  0  0  0  0  0  0  0  0  0  0  0
    7.9484   48.8678   31.2929 H   0  0  0  0  0  0  0  0  0  0  0  0
    7.0726   47.8165   30.1597 H   0  0  0  0  0  0  0  0  0  0  0  0
    6.7656   50.0741   32.9893 H   0  0  0  0  0  0  0  0  0  0  0  0
    2.4925   47.9003   31.7305 H   0  0  0  0  0  0  0  0  0  0  0  0
    4.6414   50.8796   33.9236 H   0  0  0  0  0  0  0  0  0  0  0  0
    2.5072   49.8039   33.2858 H   0  0  0  0  0  0  0  0  0  0  0  0
    9.8315   40.7396   31.7549 H   0  0  0  0  0  0  0  0  0  0  0  0
   11.4008   41.5437   31.4722 H   0  0  0  0  0  0  0  0  0  0  0  0
   11.6983   39.5042   30.3470 H   0  0  0  0  0  0  0  0  0  0  0  0
   10.1090   38.2632   32.6649 H   0  0  0  0  0  0  0  0  0  0  0  0
   13.6656   37.4541   31.2207 H   0  0  0  0  0  0  0  0  0  0  0  0
    8.8965   38.6900   30.8851 H   0  0  0  0  0  0  0  0  0  0  0  0
   11.2846   36.3060   32.5175 H   0  0  0  0  0  0  0  0  0  0  0  0
   10.8523   35.7095   30.4590 H   0  0  0  0  0  0  0  0  0  0  0  0
   12.3353   38.3588   34.7439 H   0  0  0  0  0  0  0  0  0  0  0  0
   16.7570   34.1788   32.4619 H   0  0  0  0  0  0  0  0  0  0  0  0
   15.3529   35.7359   37.5136 H   0  0  0  0  0  0  0  0  0  0  0  0
   16.6360   34.5317   37.1413 H   0  0  0  0  0  0  0  0  0  0  0  0
  1  2  2  0
  1  3  1  0
  3  4  1  0
  4  5  1  0
  6  1  1  0
  7  6  1  0
  6  8  1  0
  8  9  1  0
  9 10  1  0
  9 11  2  0
 10 12  1  0
 12 13  1  0
 13 14  2  0
 15 13  1  0
 14 16  1  0
 14 17  1  0
 18 15  2  0
 16 19  1  0
 16 20  2  0
 17 21  2  0
 21 18  1  0
  4 22  2  0
  4 23  1  0
 24 23  1  0
 24 25  1  0
 25 26  1  0
 25 27  1  0
 26 28  1  0
 27 29  1  0
 27 30  1  0
 30 28  1  0
 28 31  1  0
 30 32  1  0
 33 31  1  0
 34 31  1  0
 35 33  2  0
 33 36  1  0
 37 34  2  0
 38 35  1  0
 36 39  2  0
 36 37  1  0
 40 38  2  0
 40 39  1  0
 39 41  1  0
  6 42  1  6
  7 43  1  0
  7 44  1  0
  8 45  1  0
  8 46  1  0
 12 47  1  0
 12 48  1  0
 15 49  1  0
 17 50  1  0
 18 51  1  0
 21 52  1  0
 24 53  1  0
 24 54  1  0
 25 55  1  0
 27 56  1  0
 28 57  1  0
 29 58  1  0
 30 59  1  0
 32 60  1  0
 34 61  1  0
 38 62  1  0
 41 63  1  0
 41 64  1  0
M  CHG  3   5  -1  16   1  19  -1
M  END
>  <EmbedRMS>  (557) 
0.08916975661011203

$$$$

     RDKit          3D

 64 67  0  0  0  0  0  0  0  0999 V2000
   10.2827   43.7755   33.8082 C   0  0  0  0  0  0  0  0  0  0  0  0
   11.4085   43.5914   34.3581 O   0  0  0  0  0  0  0  0  0  0  0  0
    9.3665   42.7320   33.7016 O   0  0  0  0  0  0  0  0  0  0  0  0
    9.8863   41.2345   34.2833 P   0  0  0  0  0  5  0  0  0  0  0  0
   10.3677   41.4691   35.8737 O   0  0  0  0  0  1  0  0  0  0  0  0
    9.9542   45.1108   33.2424 C   0  0  2  0  0  0  0  0  0  0  0  0
   11.0722   46.0270   33.4846 N   0  0  0  0  0  0  0  0  0  0  0  0
    8.6384   45.6439   33.8480 C   0  0  0  0  0  0  0  0  0  0  0  0
    8.2376   46.9402   33.2167 C   0  0  0  0  0  0  0  0  0  0  0  0
    7.7967   46.9483   31.8891 O   0  0  0  0  0  0  0  0  0  0  0  0
    8.3361   48.0144   33.8706 O   0  0  0  0  0  0  0  0  0  0  0  0
    7.5612   48.1467   31.1529 C   0  0  0  0  0  0  0  0  0  0  0  0
    8.8606   48.8734   30.8876 C   0  0  0  0  0  0  0  0  0  0  0  0
    9.9739   48.2389   30.2693 C   0  0  0  0  0  0  0  0  0  0  0  0
    8.9824   50.2081   31.3162 C   0  0  0  0  0  0  0  0  0  0  0  0
    9.9167   46.8808   29.7939 N   0  0  0  0  0  4  0  0  0  0  0  0
   11.1785   48.9522   30.1351 C   0  0  0  0  0  0  0  0  0  0  0  0
   10.1826   50.9013   31.1572 C   0  0  0  0  0  0  0  0  0  0  0  0
   11.0610   46.1174   29.7569 O   0  0  0  0  0  1  0  0  0  0  0  0
    8.8805   46.4314   29.2637 O   0  0  0  0  0  0  0  0  0  0  0  0
   11.2798   50.2730   30.5727 C   0  0  0  0  0  0  0  0  0  0  0  0
    8.8087   40.1917   34.2082 O   0  0  0  0  0  0  0  0  0  0  0  0
   11.2376   40.7915   33.3656 O   0  0  0  0  0  0  0  0  0  0  0  0
   10.9142   40.6853   31.9929 C   0  0  0  0  0  0  0  0  0  0  0  0
   11.5166   39.3774   31.4393 C   0  0  0  0  0  0  0  0  0  0  0  0
   12.7471   39.0855   32.0740 O   0  0  0  0  0  0  0  0  0  0  0  0
   10.6047   38.1868   31.6670 C   0  0  0  0  0  0  0  0  0  0  0  0
   12.9345   37.6792   32.0282 C   0  0  0  0  0  0  0  0  0  0  0  0
    9.6378   38.0918   30.6488 O   0  0  0  0  0  0  0  0  0  0  0  0
   11.5761   37.0130   31.7057 C   0  0  0  0  0  0  0  0  0  0  0  0
   13.4909   37.2177   33.3233 N   0  0  0  0  0  0  0  0  0  0  0  0
   11.6234   36.3372   30.4684 O   0  0  0  0  0  0  0  0  0  0  0  0
   14.4765   36.3272   33.5727 C   0  0  0  0  0  0  0  0  0  0  0  0
   13.1182   37.6316   34.5686 C   0  0  0  0  0  0  0  0  0  0  0  0
   15.2066   35.6138   32.6739 N   0  0  0  0  0  0  0  0  0  0  0  0
   14.6735   36.2276   34.9182 C   0  0  0  0  0  0  0  0  0  0  0  0
   13.8227   37.0457   35.5781 N   0  0  0  0  0  0  0  0  0  0  0  0
   16.1638   34.7593   33.1547 C   0  0  0  0  0  0  0  0  0  0  0  0
   15.6517   35.3492   35.4131 C   0  0  0  0  0  0  0  0  0  0  0  0
   16.3792   34.6309   34.5043 N   0  0  0  0  0  0  0  0  0  0  0  0
   15.9002   35.1934   36.8090 N   0  0  0  0  0  0  0  0  0  0  0  0
    9.8248   44.9816   32.1449 H   0  0  0  0  0  0  0  0  0  0  0  0
   10.9433   46.8841   32.8995 H   0  0  0  0  0  0  0  0  0  0  0  0
   11.0733   46.3274   34.4873 H   0  0  0  0  0  0  0  0  0  0  0  0
    8.7462   45.7732   34.9478 H   0  0  0  0  0  0  0  0  0  0  0  0
    7.8207   44.9116   33.6730 H   0  0  0  0  0  0  0  0  0  0  0  0
    6.8405   48.7825   31.7127 H   0  0  0  0  0  0  0  0  0  0  0  0
    7.0753   47.8960   30.1879 H   0  0  0  0  0  0  0  0  0  0  0  0
    8.1493   50.7132   31.7894 H   0  0  0  0  0  0  0  0  0  0  0  0
   12.0412   48.4885   29.6739 H   0  0  0  0  0  0  0  0  0  0  0  0
   10.2640   51.9262   31.4954 H   0  0  0  0  0  0  0  0  0  0  0  0
   12.2113   50.8116   30.4553 H   0  0  0  0  0  0  0  0  0  0  0  0
   11.3866   41.5417   31.4661 H   0  0  0  0  0  0  0  0  0  0  0  0
    9.8240   40.7212   31.7568 H   0  0  0  0  0  0  0  0  0  0  0  0
   11.6987   39.5013   30.3467 H   0  0  0  0  0  0  0  0  0  0  0  0
   10.1095   38.2772   32.6629 H   0  0  0  0  0  0  0  0  0  0  0  0
   13.6672   37.4546   31.2213 H   0  0  0  0  0  0  0  0  0  0  0  0
    8.9779   37.4158   30.9533 H   0  0  0  0  0  0  0  0  0  0  0  0
   11.2860   36.3042   32.5177 H   0  0  0  0  0  0  0  0  0  0  0  0
   10.8690   35.6919   30.4657 H   0  0  0  0  0  0  0  0  0  0  0  0
   12.3356   38.3587   34.7440 H   0  0  0  0  0  0  0  0  0  0  0  0
   16.7572   34.1787   32.4620 H   0  0  0  0  0  0  0  0  0  0  0  0
   16.6361   34.5315   37.1415 H   0  0  0  0  0  0  0  0  0  0  0  0
   15.3530   35.7358   37.5138 H   0  0  0  0  0  0  0  0  0  0  0  0
  1  2  2  0
  1  3  1  0
  3  4  1  0
  4  5  1  0
  6  1  1  0
  7  6  1  0
  6  8  1  0
  8  9  1  0
  9 10  1  0
  9 11  2  0
 10 12  1  0
 12 13  1  0
 13 14  2  0
 15 13  1  0
 14 16  1  0
 14 17  1  0
 18 15  2  0
 16 19  1  0
 16 20  2  0
 17 21  2  0
 21 18  1  0
  4 22  2  0
  4 23  1  0
 24 23  1  0
 24 25  1  0
 25 26  1  0
 25 27  1  0
 26 28  1  0
 27 29  1  0
 27 30  1  0
 30 28  1  0
 28 31  1  0
 30 32  1  0
 33 31  1  0
 34 31  1  0
 35 33  2  0
 33 36  1  0
 37 34  2  0
 38 35  1  0
 36 39  2  0
 36 37  1  0
 40 38  2  0
 40 39  1  0
 39 41  1  0
  6 42  1  6
  7 43  1  0
  7 44  1  0
  8 45  1  0
  8 46  1  0
 12 47  1  0
 12 48  1  0
 15 49  1  0
 17 50  1  0
 18 51  1  0
 21 52  1  0
 24 53  1  0
 24 54  1  0
 25 55  1  0
 27 56  1  0
 28 57  1  0
 29 58  1  0
 30 59  1  0
 32 60  1  0
 34 61  1  0
 38 62  1  0
 41 63  1  0
 41 64  1  0
M  CHG  3   5  -1  16   1  19  -1
M  END
>  <EmbedRMS>  (558) 
0.08868864574473989

$$$$

     RDKit          3D

 64 67  0  0  0  0  0  0  0  0999 V2000
   10.2829   43.7755   33.8073 C   0  0  0  0  0  0  0  0  0  0  0  0
   11.4086   43.5915   34.3576 O   0  0  0  0  0  0  0  0  0  0  0  0
    9.3665   42.7320   33.7014 O   0  0  0  0  0  0  0  0  0  0  0  0
    9.8859   41.2348   34.2841 P   0  0  0  0  0  5  0  0  0  0  0  0
   10.3669   41.4697   35.8745 O   0  0  0  0  0  1  0  0  0  0  0  0
    9.9535   45.1116   33.2436 C   0  0  2  0  0  0  0  0  0  0  0  0
   11.0725   46.0264   33.4850 N   0  0  0  0  0  0  0  0  0  0  0  0
    8.6394   45.6428   33.8550 C   0  0  0  0  0  0  0  0  0  0  0  0
    8.2464   46.9586   33.2592 C   0  0  0  0  0  0  0  0  0  0  0  0
    8.3846   48.1265   34.0174 O   0  0  0  0  0  0  0  0  0  0  0  0
    7.8154   47.0057   32.0745 O   0  0  0  0  0  0  0  0  0  0  0  0
    8.1341   49.4291   33.4940 C   0  0  0  0  0  0  0  0  0  0  0  0
    9.2245   49.8313   32.5276 C   0  0  0  0  0  0  0  0  0  0  0  0
   10.5983   49.8635   32.8991 C   0  0  0  0  0  0  0  0  0  0  0  0
    8.8652   50.1320   31.2006 C   0  0  0  0  0  0  0  0  0  0  0  0
   11.0412   49.5713   34.2388 N   0  0  0  0  0  4  0  0  0  0  0  0
   11.5621   50.1680   31.9206 C   0  0  0  0  0  0  0  0  0  0  0  0
    9.8382   50.4462   30.2518 C   0  0  0  0  0  0  0  0  0  0  0  0
   12.3057   49.0710   34.4501 O   0  0  0  0  0  1  0  0  0  0  0  0
   10.3617   49.9112   35.2283 O   0  0  0  0  0  0  0  0  0  0  0  0
   11.1839   50.4601   30.6099 C   0  0  0  0  0  0  0  0  0  0  0  0
    8.8085   40.1917   34.2087 O   0  0  0  0  0  0  0  0  0  0  0  0
   11.2373   40.7909   33.3676 O   0  0  0  0  0  0  0  0  0  0  0  0
   10.9151   40.6883   31.9947 C   0  0  0  0  0  0  0  0  0  0  0  0
   11.5260   39.3871   31.4365 C   0  0  0  0  0  0  0  0  0  0  0  0
   12.7490   39.0894   32.0820 O   0  0  0  0  0  0  0  0  0  0  0  0
   10.6122   38.1893   31.6461 C   0  0  0  0  0  0  0  0  0  0  0  0
   12.9373   37.6828   32.0301 C   0  0  0  0  0  0  0  0  0  0  0  0
    9.6150   38.0838   30.6538 O   0  0  0  0  0  0  0  0  0  0  0  0
   11.5793   37.0137   31.7014 C   0  0  0  0  0  0  0  0  0  0  0  0
   13.4906   37.2170   33.3242 N   0  0  0  0  0  0  0  0  0  0  0  0
   11.6217   36.3252   30.4725 O   0  0  0  0  0  0  0  0  0  0  0  0
   14.4763   36.3266   33.5731 C   0  0  0  0  0  0  0  0  0  0  0  0
   13.1182   37.6308   34.5694 C   0  0  0  0  0  0  0  0  0  0  0  0
   15.2065   35.6137   32.6740 N   0  0  0  0  0  0  0  0  0  0  0  0
   14.6736   36.2270   34.9185 C   0  0  0  0  0  0  0  0  0  0  0  0
   13.8229   37.0451   35.5787 N   0  0  0  0  0  0  0  0  0  0  0  0
   16.1639   34.7593   33.1547 C   0  0  0  0  0  0  0  0  0  0  0  0
   15.6519   35.3489   35.4132 C   0  0  0  0  0  0  0  0  0  0  0  0
   16.3795   34.6308   34.5042 N   0  0  0  0  0  0  0  0  0  0  0  0
   15.9006   35.1931   36.8090 N   0  0  0  0  0  0  0  0  0  0  0  0
    9.8206   44.9855   32.1459 H   0  0  0  0  0  0  0  0  0  0  0  0
   11.0652   46.3409   34.4833 H   0  0  0  0  0  0  0  0  0  0  0  0
   10.9519   46.8744   32.8853 H   0  0  0  0  0  0  0  0  0  0  0  0
    7.8174   44.9174   33.6694 H   0  0  0  0  0  0  0  0  0  0  0  0
    8.7479   45.7533   34.9564 H   0  0  0  0  0  0  0  0  0  0  0  0
    7.1306   49.4453   33.0143 H   0  0  0  0  0  0  0  0  0  0  0  0
    8.0872   50.1597   34.3268 H   0  0  0  0  0  0  0  0  0  0  0  0
    7.8271   50.1115   30.8925 H   0  0  0  0  0  0  0  0  0  0  0  0
   12.6137   50.1942   32.1765 H   0  0  0  0  0  0  0  0  0  0  0  0
    9.5478   50.6722   29.2338 H   0  0  0  0  0  0  0  0  0  0  0  0
   11.9371   50.6997   29.8704 H   0  0  0  0  0  0  0  0  0  0  0  0
   11.3819   41.5504   31.4719 H   0  0  0  0  0  0  0  0  0  0  0  0
    9.8248   40.7178   31.7583 H   0  0  0  0  0  0  0  0  0  0  0  0
   11.7291   39.5286   30.3504 H   0  0  0  0  0  0  0  0  0  0  0  0
   10.1139   38.2719   32.6380 H   0  0  0  0  0  0  0  0  0  0  0  0
   13.6725   37.4637   31.2240 H   0  0  0  0  0  0  0  0  0  0  0  0
   10.0535   38.1086   29.7639 H   0  0  0  0  0  0  0  0  0  0  0  0
   11.2646   36.3135   32.5107 H   0  0  0  0  0  0  0  0  0  0  0  0
   12.1550   35.5033   30.6316 H   0  0  0  0  0  0  0  0  0  0  0  0
   12.3362   38.3586   34.7450 H   0  0  0  0  0  0  0  0  0  0  0  0
   16.7574   34.1789   32.4619 H   0  0  0  0  0  0  0  0  0  0  0  0
   15.3533   35.7353   37.5139 H   0  0  0  0  0  0  0  0  0  0  0  0
   16.6366   34.5314   37.1415 H   0  0  0  0  0  0  0  0  0  0  0  0
  1  2  2  0
  1  3  1  0
  3  4  1  0
  4  5  1  0
  6  1  1  0
  7  6  1  0
  6  8  1  0
  8  9  1  0
  9 10  1  0
  9 11  2  0
 10 12  1  0
 12 13  1  0
 13 14  2  0
 15 13  1  0
 14 16  1  0
 14 17  1  0
 18 15  2  0
 16 19  1  0
 16 20  2  0
 17 21  2  0
 21 18  1  0
  4 22  2  0
  4 23  1  0
 24 23  1  0
 24 25  1  0
 25 26  1  0
 25 27  1  0
 26 28  1  0
 27 29  1  0
 27 30  1  0
 30 28  1  0
 28 31  1  0
 30 32  1  0
 33 31  1  0
 34 31  1  0
 35 33  2  0
 33 36  1  0
 37 34  2  0
 38 35  1  0
 36 39  2  0
 36 37  1  0
 40 38  2  0
 40 39  1  0
 39 41  1  0
  6 42  1  6
  7 43  1  0
  7 44  1  0
  8 45  1  0
  8 46  1  0
 12 47  1  0
 12 48  1  0
 15 49  1  0
 17 50  1  0
 18 51  1  0
 21 52  1  0
 24 53  1  0
 24 54  1  0
 25 55  1  0
 27 56  1  0
 28 57  1  0
 29 58  1  0
 30 59  1  0
 32 60  1  0
 34 61  1  0
 38 62  1  0
 41 63  1  0
 41 64  1  0
M  CHG  3   5  -1  16   1  19  -1
M  END
>  <EmbedRMS>  (559) 
0.08760060111491294

$$$$

     RDKit          3D

 64 67  0  0  0  0  0  0  0  0999 V2000
   10.2859   43.7721   33.8047 C   0  0  0  0  0  0  0  0  0  0  0  0
   11.4085   43.5885   34.3611 O   0  0  0  0  0  0  0  0  0  0  0  0
    9.3674   42.7309   33.6991 O   0  0  0  0  0  0  0  0  0  0  0  0
    9.8856   41.2340   34.2831 P   0  0  0  0  0  5  0  0  0  0  0  0
   10.3666   41.4697   35.8735 O   0  0  0  0  0  1  0  0  0  0  0  0
    9.9530   45.1148   33.2534 C   0  0  2  0  0  0  0  0  0  0  0  0
   11.0713   46.0332   33.4764 N   0  0  0  0  0  0  0  0  0  0  0  0
    8.6604   45.6661   33.8889 C   0  0  0  0  0  0  0  0  0  0  0  0
    8.7943   45.8692   35.3689 C   0  0  0  0  0  0  0  0  0  0  0  0
    9.3568   47.0571   35.8521 O   0  0  0  0  0  0  0  0  0  0  0  0
    8.4240   44.9605   36.1617 O   0  0  0  0  0  0  0  0  0  0  0  0
    9.5625   47.3247   37.2402 C   0  0  0  0  0  0  0  0  0  0  0  0
    8.3837   48.0271   37.8879 C   0  0  0  0  0  0  0  0  0  0  0  0
    8.5298   48.6785   39.1438 C   0  0  0  0  0  0  0  0  0  0  0  0
    7.1252   48.0577   37.2496 C   0  0  0  0  0  0  0  0  0  0  0  0
    9.7751   48.6611   39.8664 N   0  0  0  0  0  4  0  0  0  0  0  0
    7.4344   49.3688   39.6943 C   0  0  0  0  0  0  0  0  0  0  0  0
    6.0486   48.7353   37.8231 C   0  0  0  0  0  0  0  0  0  0  0  0
   10.5304   47.5136   39.9354 O   0  0  0  0  0  1  0  0  0  0  0  0
   10.0983   49.6345   40.5784 O   0  0  0  0  0  0  0  0  0  0  0  0
    6.2040   49.3939   39.0395 C   0  0  0  0  0  0  0  0  0  0  0  0
    8.8078   40.1914   34.2082 O   0  0  0  0  0  0  0  0  0  0  0  0
   11.2369   40.7903   33.3659 O   0  0  0  0  0  0  0  0  0  0  0  0
   10.9136   40.6842   31.9931 C   0  0  0  0  0  0  0  0  0  0  0  0
   11.5175   39.3773   31.4394 C   0  0  0  0  0  0  0  0  0  0  0  0
   12.7477   39.0869   32.0756 O   0  0  0  0  0  0  0  0  0  0  0  0
   10.6069   38.1851   31.6657 C   0  0  0  0  0  0  0  0  0  0  0  0
   12.9372   37.6811   32.0290 C   0  0  0  0  0  0  0  0  0  0  0  0
    9.6404   38.0882   30.6475 O   0  0  0  0  0  0  0  0  0  0  0  0
   11.5789   37.0134   31.7045 C   0  0  0  0  0  0  0  0  0  0  0  0
   13.4915   37.2182   33.3239 N   0  0  0  0  0  0  0  0  0  0  0  0
   11.6125   36.3389   30.4673 O   0  0  0  0  0  0  0  0  0  0  0  0
   14.4766   36.3272   33.5730 C   0  0  0  0  0  0  0  0  0  0  0  0
   13.1184   37.6317   34.5690 C   0  0  0  0  0  0  0  0  0  0  0  0
   15.2066   35.6139   32.6740 N   0  0  0  0  0  0  0  0  0  0  0  0
   14.6735   36.2273   34.9184 C   0  0  0  0  0  0  0  0  0  0  0  0
   13.8228   37.0455   35.5785 N   0  0  0  0  0  0  0  0  0  0  0  0
   16.1638   34.7593   33.1548 C   0  0  0  0  0  0  0  0  0  0  0  0
   15.6517   35.3491   35.4132 C   0  0  0  0  0  0  0  0  0  0  0  0
   16.3792   34.6308   34.5043 N   0  0  0  0  0  0  0  0  0  0  0  0
   15.9004   35.1932   36.8090 N   0  0  0  0  0  0  0  0  0  0  0  0
    9.7832   45.0051   32.1586 H   0  0  0  0  0  0  0  0  0  0  0  0
   11.8827   45.7123   32.8982 H   0  0  0  0  0  0  0  0  0  0  0  0
   10.8101   46.9716   33.0946 H   0  0  0  0  0  0  0  0  0  0  0  0
    7.8144   44.9742   33.6825 H   0  0  0  0  0  0  0  0  0  0  0  0
    8.4029   46.6383   33.4160 H   0  0  0  0  0  0  0  0  0  0  0  0
   10.4531   47.9833   37.3181 H   0  0  0  0  0  0  0  0  0  0  0  0
    9.7890   46.3819   37.7827 H   0  0  0  0  0  0  0  0  0  0  0  0
    6.9637   47.5724   36.2983 H   0  0  0  0  0  0  0  0  0  0  0  0
    7.5293   49.8754   40.6466 H   0  0  0  0  0  0  0  0  0  0  0  0
    5.0912   48.7542   37.3183 H   0  0  0  0  0  0  0  0  0  0  0  0
    5.3675   49.9216   39.4793 H   0  0  0  0  0  0  0  0  0  0  0  0
   11.3851   41.5414   31.4666 H   0  0  0  0  0  0  0  0  0  0  0  0
    9.8234   40.7188   31.7570 H   0  0  0  0  0  0  0  0  0  0  0  0
   11.7007   39.5017   30.3471 H   0  0  0  0  0  0  0  0  0  0  0  0
   10.1098   38.2751   32.6606 H   0  0  0  0  0  0  0  0  0  0  0  0
   13.6713   37.4591   31.2227 H   0  0  0  0  0  0  0  0  0  0  0  0
    9.0033   37.3835   30.9351 H   0  0  0  0  0  0  0  0  0  0  0  0
   11.2706   36.3048   32.5088 H   0  0  0  0  0  0  0  0  0  0  0  0
   12.1443   35.5136   30.6141 H   0  0  0  0  0  0  0  0  0  0  0  0
   12.3362   38.3592   34.7445 H   0  0  0  0  0  0  0  0  0  0  0  0
   16.7571   34.1787   32.4620 H   0  0  0  0  0  0  0  0  0  0  0  0
   15.3532   35.7355   37.5139 H   0  0  0  0  0  0  0  0  0  0  0  0
   16.6363   34.5314   37.1415 H   0  0  0  0  0  0  0  0  0  0  0  0
  1  2  2  0
  1  3  1  0
  3  4  1  0
  4  5  1  0
  6  1  1  0
  7  6  1  0
  6  8  1  0
  8  9  1  0
  9 10  1  0
  9 11  2  0
 10 12  1  0
 12 13  1  0
 13 14  2  0
 15 13  1  0
 14 16  1  0
 14 17  1  0
 18 15  2  0
 16 19  1  0
 16 20  2  0
 17 21  2  0
 21 18  1  0
  4 22  2  0
  4 23  1  0
 24 23  1  0
 24 25  1  0
 25 26  1  0
 25 27  1  0
 26 28  1  0
 27 29  1  0
 27 30  1  0
 30 28  1  0
 28 31  1  0
 30 32  1  0
 33 31  1  0
 34 31  1  0
 35 33  2  0
 33 36  1  0
 37 34  2  0
 38 35  1  0
 36 39  2  0
 36 37  1  0
 40 38  2  0
 40 39  1  0
 39 41  1  0
  6 42  1  6
  7 43  1  0
  7 44  1  0
  8 45  1  0
  8 46  1  0
 12 47  1  0
 12 48  1  0
 15 49  1  0
 17 50  1  0
 18 51  1  0
 21 52  1  0
 24 53  1  0
 24 54  1  0
 25 55  1  0
 27 56  1  0
 28 57  1  0
 29 58  1  0
 30 59  1  0
 32 60  1  0
 34 61  1  0
 38 62  1  0
 41 63  1  0
 41 64  1  0
M  CHG  3   5  -1  16   1  19  -1
M  END
>  <EmbedRMS>  (560) 
0.08884387851152753

$$$$

     RDKit          3D

 64 67  0  0  0  0  0  0  0  0999 V2000
   10.2849   43.7725   33.8068 C   0  0  0  0  0  0  0  0  0  0  0  0
   11.4105   43.5874   34.3563 O   0  0  0  0  0  0  0  0  0  0  0  0
    9.3667   42.7311   33.7012 O   0  0  0  0  0  0  0  0  0  0  0  0
    9.8856   41.2339   34.2841 P   0  0  0  0  0  5  0  0  0  0  0  0
   10.3657   41.4694   35.8747 O   0  0  0  0  0  1  0  0  0  0  0  0
    9.9581   45.1108   33.2442 C   0  0  2  0  0  0  0  0  0  0  0  0
   11.0677   46.0365   33.4844 N   0  0  0  0  0  0  0  0  0  0  0  0
    8.6203   45.6581   33.7914 C   0  0  0  0  0  0  0  0  0  0  0  0
    8.6133   45.8088   35.2839 C   0  0  0  0  0  0  0  0  0  0  0  0
    8.9655   47.0389   35.8533 O   0  0  0  0  0  0  0  0  0  0  0  0
    8.3075   44.8247   36.0116 O   0  0  0  0  0  0  0  0  0  0  0  0
    9.0281   47.2663   37.2622 C   0  0  0  0  0  0  0  0  0  0  0  0
    7.7167   47.7658   37.8396 C   0  0  0  0  0  0  0  0  0  0  0  0
    7.6754   48.3680   39.1275 C   0  0  0  0  0  0  0  0  0  0  0  0
    6.5175   47.6542   37.1037 C   0  0  0  0  0  0  0  0  0  0  0  0
    8.8535   48.4876   39.9466 N   0  0  0  0  0  4  0  0  0  0  0  0
    6.4554   48.8718   39.6145 C   0  0  0  0  0  0  0  0  0  0  0  0
    5.3162   48.1469   37.6145 C   0  0  0  0  0  0  0  0  0  0  0  0
    9.7570   47.4539   40.0316 O   0  0  0  0  0  1  0  0  0  0  0  0
    8.9816   49.4598   40.7193 O   0  0  0  0  0  0  0  0  0  0  0  0
    5.2859   48.7591   38.8642 C   0  0  0  0  0  0  0  0  0  0  0  0
    8.8082   40.1910   34.2080 O   0  0  0  0  0  0  0  0  0  0  0  0
   11.2384   40.7904   33.3687 O   0  0  0  0  0  0  0  0  0  0  0  0
   10.9193   40.6895   31.9949 C   0  0  0  0  0  0  0  0  0  0  0  0
   11.5170   39.3801   31.4398 C   0  0  0  0  0  0  0  0  0  0  0  0
   12.7478   39.0862   32.0734 O   0  0  0  0  0  0  0  0  0  0  0  0
   10.6031   38.1891   31.6667 C   0  0  0  0  0  0  0  0  0  0  0  0
   12.9335   37.6797   32.0280 C   0  0  0  0  0  0  0  0  0  0  0  0
    9.6397   38.0777   30.6456 O   0  0  0  0  0  0  0  0  0  0  0  0
   11.5739   37.0154   31.7057 C   0  0  0  0  0  0  0  0  0  0  0  0
   13.4903   37.2178   33.3231 N   0  0  0  0  0  0  0  0  0  0  0  0
   11.6211   36.3376   30.4695 O   0  0  0  0  0  0  0  0  0  0  0  0
   14.4761   36.3273   33.5725 C   0  0  0  0  0  0  0  0  0  0  0  0
   13.1179   37.6317   34.5684 C   0  0  0  0  0  0  0  0  0  0  0  0
   15.2063   35.6139   32.6737 N   0  0  0  0  0  0  0  0  0  0  0  0
   14.6733   36.2277   34.9180 C   0  0  0  0  0  0  0  0  0  0  0  0
   13.8225   37.0459   35.5779 N   0  0  0  0  0  0  0  0  0  0  0  0
   16.1636   34.7594   33.1546 C   0  0  0  0  0  0  0  0  0  0  0  0
   15.6515   35.3494   35.4129 C   0  0  0  0  0  0  0  0  0  0  0  0
   16.3791   34.6311   34.5041 N   0  0  0  0  0  0  0  0  0  0  0  0
   15.9001   35.1935   36.8088 N   0  0  0  0  0  0  0  0  0  0  0  0
    9.8475   44.9839   32.1449 H   0  0  0  0  0  0  0  0  0  0  0  0
   11.1611   46.2300   34.5081 H   0  0  0  0  0  0  0  0  0  0  0  0
   10.8534   46.9456   33.0136 H   0  0  0  0  0  0  0  0  0  0  0  0
    7.7915   44.9805   33.4902 H   0  0  0  0  0  0  0  0  0  0  0  0
    8.4110   46.6463   33.3280 H   0  0  0  0  0  0  0  0  0  0  0  0
    9.8075   48.0380   37.4350 H   0  0  0  0  0  0  0  0  0  0  0  0
    9.3461   46.3393   37.7857 H   0  0  0  0  0  0  0  0  0  0  0  0
    6.4975   47.1994   36.1241 H   0  0  0  0  0  0  0  0  0  0  0  0
    6.4065   49.3386   40.5903 H   0  0  0  0  0  0  0  0  0  0  0  0
    4.4060   48.0584   37.0353 H   0  0  0  0  0  0  0  0  0  0  0  0
    4.3527   49.1433   39.2555 H   0  0  0  0  0  0  0  0  0  0  0  0
   11.4009   41.5437   31.4729 H   0  0  0  0  0  0  0  0  0  0  0  0
    9.8314   40.7396   31.7550 H   0  0  0  0  0  0  0  0  0  0  0  0
   11.6982   39.5043   30.3471 H   0  0  0  0  0  0  0  0  0  0  0  0
   10.1089   38.2631   32.6649 H   0  0  0  0  0  0  0  0  0  0  0  0
   13.6656   37.4541   31.2207 H   0  0  0  0  0  0  0  0  0  0  0  0
    8.8964   38.6899   30.8852 H   0  0  0  0  0  0  0  0  0  0  0  0
   11.2846   36.3060   32.5175 H   0  0  0  0  0  0  0  0  0  0  0  0
   10.8524   35.7094   30.4590 H   0  0  0  0  0  0  0  0  0  0  0  0
   12.3353   38.3588   34.7439 H   0  0  0  0  0  0  0  0  0  0  0  0
   16.7570   34.1788   32.4619 H   0  0  0  0  0  0  0  0  0  0  0  0
   16.6360   34.5317   37.1414 H   0  0  0  0  0  0  0  0  0  0  0  0
   15.3529   35.7359   37.5136 H   0  0  0  0  0  0  0  0  0  0  0  0
  1  2  2  0
  1  3  1  0
  3  4  1  0
  4  5  1  0
  6  1  1  0
  7  6  1  0
  6  8  1  0
  8  9  1  0
  9 10  1  0
  9 11  2  0
 10 12  1  0
 12 13  1  0
 13 14  2  0
 15 13  1  0
 14 16  1  0
 14 17  1  0
 18 15  2  0
 16 19  1  0
 16 20  2  0
 17 21  2  0
 21 18  1  0
  4 22  2  0
  4 23  1  0
 24 23  1  0
 24 25  1  0
 25 26  1  0
 25 27  1  0
 26 28  1  0
 27 29  1  0
 27 30  1  0
 30 28  1  0
 28 31  1  0
 30 32  1  0
 33 31  1  0
 34 31  1  0
 35 33  2  0
 33 36  1  0
 37 34  2  0
 38 35  1  0
 36 39  2  0
 36 37  1  0
 40 38  2  0
 40 39  1  0
 39 41  1  0
  6 42  1  6
  7 43  1  0
  7 44  1  0
  8 45  1  0
  8 46  1  0
 12 47  1  0
 12 48  1  0
 15 49  1  0
 17 50  1  0
 18 51  1  0
 21 52  1  0
 24 53  1  0
 24 54  1  0
 25 55  1  0
 27 56  1  0
 28 57  1  0
 29 58  1  0
 30 59  1  0
 32 60  1  0
 34 61  1  0
 38 62  1  0
 41 63  1  0
 41 64  1  0
M  CHG  3   5  -1  16   1  19  -1
M  END
>  <EmbedRMS>  (561) 
0.08933067160461662

$$$$

     RDKit          3D

 64 67  0  0  0  0  0  0  0  0999 V2000
   10.2858   43.7721   33.8048 C   0  0  0  0  0  0  0  0  0  0  0  0
   11.4084   43.5886   34.3612 O   0  0  0  0  0  0  0  0  0  0  0  0
    9.3672   42.7311   33.6996 O   0  0  0  0  0  0  0  0  0  0  0  0
    9.8853   41.2343   34.2839 P   0  0  0  0  0  5  0  0  0  0  0  0
   10.3662   41.4700   35.8743 O   0  0  0  0  0  1  0  0  0  0  0  0
    9.9531   45.1147   33.2529 C   0  0  2  0  0  0  0  0  0  0  0  0
   11.0712   46.0333   33.4767 N   0  0  0  0  0  0  0  0  0  0  0  0
    8.6596   45.6655   33.8868 C   0  0  0  0  0  0  0  0  0  0  0  0
    8.7890   45.8604   35.3684 C   0  0  0  0  0  0  0  0  0  0  0  0
    9.4196   47.0074   35.8571 O   0  0  0  0  0  0  0  0  0  0  0  0
    8.3601   44.9752   36.1582 O   0  0  0  0  0  0  0  0  0  0  0  0
    9.6028   47.2521   37.2478 C   0  0  0  0  0  0  0  0  0  0  0  0
   10.2954   48.5780   37.4434 C   0  0  0  0  0  0  0  0  0  0  0  0
    9.7785   49.7899   36.9064 C   0  0  0  0  0  0  0  0  0  0  0  0
   11.5131   48.6048   38.1489 C   0  0  0  0  0  0  0  0  0  0  0  0
    8.5337   49.8394   36.1841 N   0  0  0  0  0  4  0  0  0  0  0  0
   10.5144   50.9776   37.0679 C   0  0  0  0  0  0  0  0  0  0  0  0
   12.2177   49.7981   38.3102 C   0  0  0  0  0  0  0  0  0  0  0  0
    8.3450   50.7886   35.2059 O   0  0  0  0  0  1  0  0  0  0  0  0
    7.5606   49.1427   36.5371 O   0  0  0  0  0  0  0  0  0  0  0  0
   11.7217   50.9811   37.7671 C   0  0  0  0  0  0  0  0  0  0  0  0
    8.8077   40.1914   34.2086 O   0  0  0  0  0  0  0  0  0  0  0  0
   11.2368   40.7908   33.3672 O   0  0  0  0  0  0  0  0  0  0  0  0
   10.9136   40.6860   31.9946 C   0  0  0  0  0  0  0  0  0  0  0  0
   11.5170   39.3797   31.4409 C   0  0  0  0  0  0  0  0  0  0  0  0
   12.7488   39.0886   32.0762 O   0  0  0  0  0  0  0  0  0  0  0  0
   10.6051   38.1876   31.6659 C   0  0  0  0  0  0  0  0  0  0  0  0
   12.9412   37.6828   32.0278 C   0  0  0  0  0  0  0  0  0  0  0  0
    9.6358   38.0930   30.6503 O   0  0  0  0  0  0  0  0  0  0  0  0
   11.5827   37.0179   31.6936 C   0  0  0  0  0  0  0  0  0  0  0  0
   13.4909   37.2176   33.3239 N   0  0  0  0  0  0  0  0  0  0  0  0
   11.6140   36.3180   30.4675 O   0  0  0  0  0  0  0  0  0  0  0  0
   14.4763   36.3270   33.5733 C   0  0  0  0  0  0  0  0  0  0  0  0
   13.1179   37.6316   34.5689 C   0  0  0  0  0  0  0  0  0  0  0  0
   15.2067   35.6140   32.6743 N   0  0  0  0  0  0  0  0  0  0  0  0
   14.6731   36.2272   34.9186 C   0  0  0  0  0  0  0  0  0  0  0  0
   13.8223   37.0456   35.5785 N   0  0  0  0  0  0  0  0  0  0  0  0
   16.1639   34.7595   33.1550 C   0  0  0  0  0  0  0  0  0  0  0  0
   15.6515   35.3491   35.4134 C   0  0  0  0  0  0  0  0  0  0  0  0
   16.3792   34.6310   34.5045 N   0  0  0  0  0  0  0  0  0  0  0  0
   15.9002   35.1933   36.8092 N   0  0  0  0  0  0  0  0  0  0  0  0
    9.7846   45.0049   32.1579 H   0  0  0  0  0  0  0  0  0  0  0  0
   10.8098   46.9722   33.0963 H   0  0  0  0  0  0  0  0  0  0  0  0
   11.8827   45.7133   32.8982 H   0  0  0  0  0  0  0  0  0  0  0  0
    7.8129   44.9766   33.6728 H   0  0  0  0  0  0  0  0  0  0  0  0
    8.4063   46.6413   33.4190 H   0  0  0  0  0  0  0  0  0  0  0  0
    8.6237   47.2597   37.7716 H   0  0  0  0  0  0  0  0  0  0  0  0
   10.2021   46.4213   37.6813 H   0  0  0  0  0  0  0  0  0  0  0  0
   11.9273   47.6966   38.5694 H   0  0  0  0  0  0  0  0  0  0  0  0
   10.1432   51.9110   36.6640 H   0  0  0  0  0  0  0  0  0  0  0  0
   13.1543   49.8040   38.8527 H   0  0  0  0  0  0  0  0  0  0  0  0
   12.2726   51.9046   37.8903 H   0  0  0  0  0  0  0  0  0  0  0  0
   11.3856   41.5434   31.4688 H   0  0  0  0  0  0  0  0  0  0  0  0
    9.8235   40.7210   31.7580 H   0  0  0  0  0  0  0  0  0  0  0  0
   11.6994   39.5065   30.3487 H   0  0  0  0  0  0  0  0  0  0  0  0
   10.1121   38.2722   32.6632 H   0  0  0  0  0  0  0  0  0  0  0  0
   13.6816   37.4632   31.2269 H   0  0  0  0  0  0  0  0  0  0  0  0
    9.0037   37.3828   30.9349 H   0  0  0  0  0  0  0  0  0  0  0  0
   11.2846   36.3040   32.4928 H   0  0  0  0  0  0  0  0  0  0  0  0
   11.8849   36.9590   29.7588 H   0  0  0  0  0  0  0  0  0  0  0  0
   12.3363   38.3599   34.7441 H   0  0  0  0  0  0  0  0  0  0  0  0
   16.7574   34.1790   32.4623 H   0  0  0  0  0  0  0  0  0  0  0  0
   16.6363   34.5316   37.1418 H   0  0  0  0  0  0  0  0  0  0  0  0
   15.3529   35.7355   37.5141 H   0  0  0  0  0  0  0  0  0  0  0  0
  1  2  2  0
  1  3  1  0
  3  4  1  0
  4  5  1  0
  6  1  1  0
  7  6  1  0
  6  8  1  0
  8  9  1  0
  9 10  1  0
  9 11  2  0
 10 12  1  0
 12 13  1  0
 13 14  2  0
 15 13  1  0
 14 16  1  0
 14 17  1  0
 18 15  2  0
 16 19  1  0
 16 20  2  0
 17 21  2  0
 21 18  1  0
  4 22  2  0
  4 23  1  0
 24 23  1  0
 24 25  1  0
 25 26  1  0
 25 27  1  0
 26 28  1  0
 27 29  1  0
 27 30  1  0
 30 28  1  0
 28 31  1  0
 30 32  1  0
 33 31  1  0
 34 31  1  0
 35 33  2  0
 33 36  1  0
 37 34  2  0
 38 35  1  0
 36 39  2  0
 36 37  1  0
 40 38  2  0
 40 39  1  0
 39 41  1  0
  6 42  1  6
  7 43  1  0
  7 44  1  0
  8 45  1  0
  8 46  1  0
 12 47  1  0
 12 48  1  0
 15 49  1  0
 17 50  1  0
 18 51  1  0
 21 52  1  0
 24 53  1  0
 24 54  1  0
 25 55  1  0
 27 56  1  0
 28 57  1  0
 29 58  1  0
 30 59  1  0
 32 60  1  0
 34 61  1  0
 38 62  1  0
 41 63  1  0
 41 64  1  0
M  CHG  3   5  -1  16   1  19  -1
M  END
>  <EmbedRMS>  (562) 
0.08785755713756921

$$$$

     RDKit          3D

 64 67  0  0  0  0  0  0  0  0999 V2000
   10.2873   43.7710   33.8018 C   0  0  0  0  0  0  0  0  0  0  0  0
   11.4095   43.5876   34.3590 O   0  0  0  0  0  0  0  0  0  0  0  0
    9.3680   42.7305   33.6978 O   0  0  0  0  0  0  0  0  0  0  0  0
    9.8852   41.2342   34.2842 P   0  0  0  0  0  5  0  0  0  0  0  0
   10.3652   41.4713   35.8747 O   0  0  0  0  0  1  0  0  0  0  0  0
    9.9517   45.1157   33.2561 C   0  0  2  0  0  0  0  0  0  0  0  0
   11.0707   46.0335   33.4779 N   0  0  0  0  0  0  0  0  0  0  0  0
    8.6628   45.6648   33.9011 C   0  0  0  0  0  0  0  0  0  0  0  0
    8.7972   45.8328   35.3855 C   0  0  0  0  0  0  0  0  0  0  0  0
    8.5658   44.7345   36.2234 O   0  0  0  0  0  0  0  0  0  0  0  0
    9.1462   46.9473   35.8621 O   0  0  0  0  0  0  0  0  0  0  0  0
    8.7284   44.7760   37.6415 C   0  0  0  0  0  0  0  0  0  0  0  0
    7.4661   45.1962   38.3722 C   0  0  0  0  0  0  0  0  0  0  0  0
    7.3551   45.0324   39.7821 C   0  0  0  0  0  0  0  0  0  0  0  0
    6.3695   45.7325   37.6632 C   0  0  0  0  0  0  0  0  0  0  0  0
    8.4325   44.5032   40.5779 N   0  0  0  0  0  4  0  0  0  0  0  0
    6.1517   45.3767   40.4230 C   0  0  0  0  0  0  0  0  0  0  0  0
    5.1917   46.0818   38.3244 C   0  0  0  0  0  0  0  0  0  0  0  0
    8.1545   43.7949   41.7244 O   0  0  0  0  0  1  0  0  0  0  0  0
    9.6166   44.8184   40.3419 O   0  0  0  0  0  0  0  0  0  0  0  0
    5.0813   45.9007   39.6999 C   0  0  0  0  0  0  0  0  0  0  0  0
    8.8074   40.1916   34.2090 O   0  0  0  0  0  0  0  0  0  0  0  0
   11.2368   40.7892   33.3686 O   0  0  0  0  0  0  0  0  0  0  0  0
   10.9154   40.6881   31.9954 C   0  0  0  0  0  0  0  0  0  0  0  0
   11.5261   39.3871   31.4366 C   0  0  0  0  0  0  0  0  0  0  0  0
   12.7492   39.0893   32.0819 O   0  0  0  0  0  0  0  0  0  0  0  0
   10.6123   38.1893   31.6461 C   0  0  0  0  0  0  0  0  0  0  0  0
   12.9373   37.6827   32.0301 C   0  0  0  0  0  0  0  0  0  0  0  0
    9.6150   38.0839   30.6538 O   0  0  0  0  0  0  0  0  0  0  0  0
   11.5793   37.0136   31.7014 C   0  0  0  0  0  0  0  0  0  0  0  0
   13.4906   37.2169   33.3242 N   0  0  0  0  0  0  0  0  0  0  0  0
   11.6216   36.3252   30.4725 O   0  0  0  0  0  0  0  0  0  0  0  0
   14.4763   36.3266   33.5731 C   0  0  0  0  0  0  0  0  0  0  0  0
   13.1181   37.6308   34.5694 C   0  0  0  0  0  0  0  0  0  0  0  0
   15.2065   35.6137   32.6740 N   0  0  0  0  0  0  0  0  0  0  0  0
   14.6736   36.2270   34.9185 C   0  0  0  0  0  0  0  0  0  0  0  0
   13.8229   37.0451   35.5787 N   0  0  0  0  0  0  0  0  0  0  0  0
   16.1639   34.7593   33.1547 C   0  0  0  0  0  0  0  0  0  0  0  0
   15.6519   35.3489   35.4132 C   0  0  0  0  0  0  0  0  0  0  0  0
   16.3794   34.6308   34.5042 N   0  0  0  0  0  0  0  0  0  0  0  0
   15.9006   35.1931   36.8090 N   0  0  0  0  0  0  0  0  0  0  0  0
    9.7766   45.0103   32.1617 H   0  0  0  0  0  0  0  0  0  0  0  0
   11.8801   45.7139   32.8962 H   0  0  0  0  0  0  0  0  0  0  0  0
   10.8082   46.9727   33.0991 H   0  0  0  0  0  0  0  0  0  0  0  0
    7.8156   44.9765   33.6907 H   0  0  0  0  0  0  0  0  0  0  0  0
    8.4049   46.6430   33.4398 H   0  0  0  0  0  0  0  0  0  0  0  0
    9.0018   43.7517   37.9721 H   0  0  0  0  0  0  0  0  0  0  0  0
    9.5674   45.4546   37.9064 H   0  0  0  0  0  0  0  0  0  0  0  0
    6.4045   45.8743   36.5928 H   0  0  0  0  0  0  0  0  0  0  0  0
    6.0472   45.2546   41.4937 H   0  0  0  0  0  0  0  0  0  0  0  0
    4.3585   46.4885   37.7657 H   0  0  0  0  0  0  0  0  0  0  0  0
    4.1643   46.1691   40.2086 H   0  0  0  0  0  0  0  0  0  0  0  0
    9.8253   40.7180   31.7583 H   0  0  0  0  0  0  0  0  0  0  0  0
   11.3830   41.5504   31.4736 H   0  0  0  0  0  0  0  0  0  0  0  0
   11.7290   39.5289   30.3505 H   0  0  0  0  0  0  0  0  0  0  0  0
   10.1139   38.2718   32.6380 H   0  0  0  0  0  0  0  0  0  0  0  0
   13.6726   37.4636   31.2240 H   0  0  0  0  0  0  0  0  0  0  0  0
   10.0536   38.1086   29.7639 H   0  0  0  0  0  0  0  0  0  0  0  0
   11.2646   36.3134   32.5107 H   0  0  0  0  0  0  0  0  0  0  0  0
   12.1549   35.5032   30.6316 H   0  0  0  0  0  0  0  0  0  0  0  0
   12.3362   38.3586   34.7450 H   0  0  0  0  0  0  0  0  0  0  0  0
   16.7573   34.1788   32.4619 H   0  0  0  0  0  0  0  0  0  0  0  0
   15.3533   35.7353   37.5139 H   0  0  0  0  0  0  0  0  0  0  0  0
   16.6366   34.5314   37.1415 H   0  0  0  0  0  0  0  0  0  0  0  0
  1  2  2  0
  1  3  1  0
  3  4  1  0
  4  5  1  0
  6  1  1  0
  7  6  1  0
  6  8  1  0
  8  9  1  0
  9 10  1  0
  9 11  2  0
 10 12  1  0
 12 13  1  0
 13 14  2  0
 15 13  1  0
 14 16  1  0
 14 17  1  0
 18 15  2  0
 16 19  1  0
 16 20  2  0
 17 21  2  0
 21 18  1  0
  4 22  2  0
  4 23  1  0
 24 23  1  0
 24 25  1  0
 25 26  1  0
 25 27  1  0
 26 28  1  0
 27 29  1  0
 27 30  1  0
 30 28  1  0
 28 31  1  0
 30 32  1  0
 33 31  1  0
 34 31  1  0
 35 33  2  0
 33 36  1  0
 37 34  2  0
 38 35  1  0
 36 39  2  0
 36 37  1  0
 40 38  2  0
 40 39  1  0
 39 41  1  0
  6 42  1  6
  7 43  1  0
  7 44  1  0
  8 45  1  0
  8 46  1  0
 12 47  1  0
 12 48  1  0
 15 49  1  0
 17 50  1  0
 18 51  1  0
 21 52  1  0
 24 53  1  0
 24 54  1  0
 25 55  1  0
 27 56  1  0
 28 57  1  0
 29 58  1  0
 30 59  1  0
 32 60  1  0
 34 61  1  0
 38 62  1  0
 41 63  1  0
 41 64  1  0
M  CHG  3   5  -1  16   1  19  -1
M  END
>  <EmbedRMS>  (563) 
0.08794595229202189

$$$$

     RDKit          3D

 64 67  0  0  0  0  0  0  0  0999 V2000
   10.2845   43.7734   33.8096 C   0  0  0  0  0  0  0  0  0  0  0  0
   11.4072   43.5897   34.3654 O   0  0  0  0  0  0  0  0  0  0  0  0
    9.3669   42.7317   33.7023 O   0  0  0  0  0  0  0  0  0  0  0  0
    9.8855   41.2340   34.2836 P   0  0  0  0  0  5  0  0  0  0  0  0
   10.3670   41.4665   35.8726 O   0  0  0  0  0  1  0  0  0  0  0  0
    9.9547   45.1131   33.2491 C   0  0  2  0  0  0  0  0  0  0  0  0
   11.0718   46.0329   33.4737 N   0  0  0  0  0  0  0  0  0  0  0  0
    8.6561   45.6689   33.8688 C   0  0  0  0  0  0  0  0  0  0  0  0
    8.8053   45.9596   35.3322 C   0  0  0  0  0  0  0  0  0  0  0  0
    8.5745   44.9412   36.2646 O   0  0  0  0  0  0  0  0  0  0  0  0
    9.1630   47.1101   35.7053 O   0  0  0  0  0  0  0  0  0  0  0  0
    8.8996   45.0478   37.6502 C   0  0  0  0  0  0  0  0  0  0  0  0
   10.2776   44.4780   37.8992 C   0  0  0  0  0  0  0  0  0  0  0  0
   10.4841   43.2105   38.5061 C   0  0  0  0  0  0  0  0  0  0  0  0
   11.3902   45.1922   37.4183 C   0  0  0  0  0  0  0  0  0  0  0  0
    9.4024   42.4496   39.0614 N   0  0  0  0  0  4  0  0  0  0  0  0
   11.7839   42.6819   38.5740 C   0  0  0  0  0  0  0  0  0  0  0  0
   12.6760   44.6576   37.5091 C   0  0  0  0  0  0  0  0  0  0  0  0
    9.3537   41.0900   38.8568 O   0  0  0  0  0  1  0  0  0  0  0  0
    8.6840   42.9498   39.9510 O   0  0  0  0  0  0  0  0  0  0  0  0
   12.8716   43.4010   38.0782 C   0  0  0  0  0  0  0  0  0  0  0  0
    8.8082   40.1910   34.2073 O   0  0  0  0  0  0  0  0  0  0  0  0
   11.2383   40.7915   33.3686 O   0  0  0  0  0  0  0  0  0  0  0  0
   10.9187   40.6907   31.9954 C   0  0  0  0  0  0  0  0  0  0  0  0
   11.5175   39.3824   31.4410 C   0  0  0  0  0  0  0  0  0  0  0  0
   12.7494   39.0894   32.0756 O   0  0  0  0  0  0  0  0  0  0  0  0
   10.6036   38.1900   31.6660 C   0  0  0  0  0  0  0  0  0  0  0  0
   12.9401   37.6835   32.0277 C   0  0  0  0  0  0  0  0  0  0  0  0
    9.6376   38.0785   30.6476 O   0  0  0  0  0  0  0  0  0  0  0  0
   11.5804   37.0204   31.6937 C   0  0  0  0  0  0  0  0  0  0  0  0
   13.4901   37.2178   33.3238 N   0  0  0  0  0  0  0  0  0  0  0  0
   11.6118   36.3193   30.4681 O   0  0  0  0  0  0  0  0  0  0  0  0
   14.4758   36.3272   33.5731 C   0  0  0  0  0  0  0  0  0  0  0  0
   13.1176   37.6319   34.5689 C   0  0  0  0  0  0  0  0  0  0  0  0
   15.2063   35.6141   32.6742 N   0  0  0  0  0  0  0  0  0  0  0  0
   14.6729   36.2275   34.9185 C   0  0  0  0  0  0  0  0  0  0  0  0
   13.8221   37.0459   35.5784 N   0  0  0  0  0  0  0  0  0  0  0  0
   16.1636   34.7596   33.1549 C   0  0  0  0  0  0  0  0  0  0  0  0
   15.6513   35.3494   35.4133 C   0  0  0  0  0  0  0  0  0  0  0  0
   16.3790   34.6312   34.5044 N   0  0  0  0  0  0  0  0  0  0  0  0
   15.9001   35.1936   36.8091 N   0  0  0  0  0  0  0  0  0  0  0  0
    9.7935   44.9947   32.1539 H   0  0  0  0  0  0  0  0  0  0  0  0
   11.8872   45.7085   32.9032 H   0  0  0  0  0  0  0  0  0  0  0  0
   10.8126   46.9685   33.0841 H   0  0  0  0  0  0  0  0  0  0  0  0
    8.3678   46.6024   33.3378 H   0  0  0  0  0  0  0  0  0  0  0  0
    7.8248   44.9457   33.7221 H   0  0  0  0  0  0  0  0  0  0  0  0
    8.1187   44.5111   38.2179 H   0  0  0  0  0  0  0  0  0  0  0  0
    8.8562   46.1047   37.9925 H   0  0  0  0  0  0  0  0  0  0  0  0
   11.2631   46.1615   36.9554 H   0  0  0  0  0  0  0  0  0  0  0  0
   11.9553   41.7139   39.0279 H   0  0  0  0  0  0  0  0  0  0  0  0
   13.5213   45.2154   37.1273 H   0  0  0  0  0  0  0  0  0  0  0  0
   13.8690   42.9855   38.1414 H   0  0  0  0  0  0  0  0  0  0  0  0
   11.3995   41.5454   31.4733 H   0  0  0  0  0  0  0  0  0  0  0  0
    9.8308   40.7397   31.7553 H   0  0  0  0  0  0  0  0  0  0  0  0
   11.6991   39.5088   30.3487 H   0  0  0  0  0  0  0  0  0  0  0  0
   10.1132   38.2591   32.6665 H   0  0  0  0  0  0  0  0  0  0  0  0
   13.6801   37.4629   31.2267 H   0  0  0  0  0  0  0  0  0  0  0  0
    8.8951   38.6907   30.8894 H   0  0  0  0  0  0  0  0  0  0  0  0
   11.2830   36.3061   32.4930 H   0  0  0  0  0  0  0  0  0  0  0  0
   11.8859   36.9589   29.7594 H   0  0  0  0  0  0  0  0  0  0  0  0
   12.3360   38.3602   34.7443 H   0  0  0  0  0  0  0  0  0  0  0  0
   16.7570   34.1790   32.4622 H   0  0  0  0  0  0  0  0  0  0  0  0
   16.6362   34.5318   37.1415 H   0  0  0  0  0  0  0  0  0  0  0  0
   15.3528   35.7358   37.5140 H   0  0  0  0  0  0  0  0  0  0  0  0
  1  2  2  0
  1  3  1  0
  3  4  1  0
  4  5  1  0
  6  1  1  0
  7  6  1  0
  6  8  1  0
  8  9  1  0
  9 10  1  0
  9 11  2  0
 10 12  1  0
 12 13  1  0
 13 14  2  0
 15 13  1  0
 14 16  1  0
 14 17  1  0
 18 15  2  0
 16 19  1  0
 16 20  2  0
 17 21  2  0
 21 18  1  0
  4 22  2  0
  4 23  1  0
 24 23  1  0
 24 25  1  0
 25 26  1  0
 25 27  1  0
 26 28  1  0
 27 29  1  0
 27 30  1  0
 30 28  1  0
 28 31  1  0
 30 32  1  0
 33 31  1  0
 34 31  1  0
 35 33  2  0
 33 36  1  0
 37 34  2  0
 38 35  1  0
 36 39  2  0
 36 37  1  0
 40 38  2  0
 40 39  1  0
 39 41  1  0
  6 42  1  6
  7 43  1  0
  7 44  1  0
  8 45  1  0
  8 46  1  0
 12 47  1  0
 12 48  1  0
 15 49  1  0
 17 50  1  0
 18 51  1  0
 21 52  1  0
 24 53  1  0
 24 54  1  0
 25 55  1  0
 27 56  1  0
 28 57  1  0
 29 58  1  0
 30 59  1  0
 32 60  1  0
 34 61  1  0
 38 62  1  0
 41 63  1  0
 41 64  1  0
M  CHG  3   5  -1  16   1  19  -1
M  END
>  <EmbedRMS>  (564) 
0.08830157403205083

$$$$

     RDKit          3D

 64 67  0  0  0  0  0  0  0  0999 V2000
   10.2857   43.7716   33.8029 C   0  0  0  0  0  0  0  0  0  0  0  0
   11.4074   43.5881   34.3610 O   0  0  0  0  0  0  0  0  0  0  0  0
    9.3665   42.7310   33.6996 O   0  0  0  0  0  0  0  0  0  0  0  0
    9.8852   41.2344   34.2848 P   0  0  0  0  0  5  0  0  0  0  0  0
   10.3680   41.4701   35.8746 O   0  0  0  0  0  1  0  0  0  0  0  0
    9.9561   45.1141   33.2461 C   0  0  2  0  0  0  0  0  0  0  0  0
   11.0694   46.0348   33.4837 N   0  0  0  0  0  0  0  0  0  0  0  0
    8.6522   45.6663   33.8586 C   0  0  0  0  0  0  0  0  0  0  0  0
    8.7223   45.7690   35.3530 C   0  0  0  0  0  0  0  0  0  0  0  0
    8.2125   44.7274   36.1323 O   0  0  0  0  0  0  0  0  0  0  0  0
    9.2735   46.7676   35.8914 O   0  0  0  0  0  0  0  0  0  0  0  0
    8.3538   44.6806   37.5494 C   0  0  0  0  0  0  0  0  0  0  0  0
    7.6994   43.4455   38.1306 C   0  0  0  0  0  0  0  0  0  0  0  0
    7.3702   43.3682   39.5119 C   0  0  0  0  0  0  0  0  0  0  0  0
    7.4235   42.3383   37.3015 C   0  0  0  0  0  0  0  0  0  0  0  0
    7.6800   44.4325   40.4303 N   0  0  0  0  0  4  0  0  0  0  0  0
    6.7214   42.2202   40.0006 C   0  0  0  0  0  0  0  0  0  0  0  0
    6.7973   41.2015   37.8126 C   0  0  0  0  0  0  0  0  0  0  0  0
    6.8850   44.6401   41.5341 O   0  0  0  0  0  1  0  0  0  0  0  0
    8.7572   45.0567   40.3419 O   0  0  0  0  0  0  0  0  0  0  0  0
    6.4389   41.1459   39.1570 C   0  0  0  0  0  0  0  0  0  0  0  0
    8.8076   40.1915   34.2104 O   0  0  0  0  0  0  0  0  0  0  0  0
   11.2366   40.7902   33.3689 O   0  0  0  0  0  0  0  0  0  0  0  0
   10.9150   40.6896   31.9960 C   0  0  0  0  0  0  0  0  0  0  0  0
   11.5268   39.3898   31.4374 C   0  0  0  0  0  0  0  0  0  0  0  0
   12.7506   39.0917   32.0839 O   0  0  0  0  0  0  0  0  0  0  0  0
   10.6121   38.1915   31.6452 C   0  0  0  0  0  0  0  0  0  0  0  0
   12.9428   37.6853   32.0295 C   0  0  0  0  0  0  0  0  0  0  0  0
    9.6069   38.0857   30.6603 O   0  0  0  0  0  0  0  0  0  0  0  0
   11.5845   37.0186   31.6880 C   0  0  0  0  0  0  0  0  0  0  0  0
   13.4898   37.2164   33.3250 N   0  0  0  0  0  0  0  0  0  0  0  0
   11.6201   36.3062   30.4693 O   0  0  0  0  0  0  0  0  0  0  0  0
   14.4758   36.3264   33.5739 C   0  0  0  0  0  0  0  0  0  0  0  0
   13.1175   37.6308   34.5699 C   0  0  0  0  0  0  0  0  0  0  0  0
   15.2065   35.6139   32.6746 N   0  0  0  0  0  0  0  0  0  0  0  0
   14.6731   36.2268   34.9191 C   0  0  0  0  0  0  0  0  0  0  0  0
   13.8224   37.0450   35.5792 N   0  0  0  0  0  0  0  0  0  0  0  0
   16.1640   34.7596   33.1551 C   0  0  0  0  0  0  0  0  0  0  0  0
   15.6517   35.3489   35.4136 C   0  0  0  0  0  0  0  0  0  0  0  0
   16.3795   34.6310   34.5046 N   0  0  0  0  0  0  0  0  0  0  0  0
   15.9006   35.1931   36.8094 N   0  0  0  0  0  0  0  0  0  0  0  0
    9.8040   45.0036   32.1488 H   0  0  0  0  0  0  0  0  0  0  0  0
   11.8903   45.7136   32.9194 H   0  0  0  0  0  0  0  0  0  0  0  0
   10.8137   46.9716   33.0946 H   0  0  0  0  0  0  0  0  0  0  0  0
    8.4323   46.6686   33.4311 H   0  0  0  0  0  0  0  0  0  0  0  0
    7.8035   45.0042   33.5804 H   0  0  0  0  0  0  0  0  0  0  0  0
    7.8801   45.5898   37.9790 H   0  0  0  0  0  0  0  0  0  0  0  0
    9.4347   44.6698   37.8072 H   0  0  0  0  0  0  0  0  0  0  0  0
    7.6806   42.3500   36.2509 H   0  0  0  0  0  0  0  0  0  0  0  0
    6.4542   42.1459   41.0471 H   0  0  0  0  0  0  0  0  0  0  0  0
    6.5857   40.3626   37.1620 H   0  0  0  0  0  0  0  0  0  0  0  0
    5.9497   40.2638   39.5497 H   0  0  0  0  0  0  0  0  0  0  0  0
   11.3817   41.5526   31.4746 H   0  0  0  0  0  0  0  0  0  0  0  0
    9.8248   40.7186   31.7591 H   0  0  0  0  0  0  0  0  0  0  0  0
   11.7316   39.5338   30.3520 H   0  0  0  0  0  0  0  0  0  0  0  0
   10.1213   38.2681   32.6413 H   0  0  0  0  0  0  0  0  0  0  0  0
   13.6881   37.4709   31.2319 H   0  0  0  0  0  0  0  0  0  0  0  0
   10.0256   38.1750   29.7656 H   0  0  0  0  0  0  0  0  0  0  0  0
   11.2796   36.3123   32.4916 H   0  0  0  0  0  0  0  0  0  0  0  0
   11.9872   36.9099   29.7715 H   0  0  0  0  0  0  0  0  0  0  0  0
   12.3365   38.3596   34.7454 H   0  0  0  0  0  0  0  0  0  0  0  0
   16.7576   34.1795   32.4622 H   0  0  0  0  0  0  0  0  0  0  0  0
   15.3532   35.7351   37.5143 H   0  0  0  0  0  0  0  0  0  0  0  0
   16.6368   34.5316   37.1418 H   0  0  0  0  0  0  0  0  0  0  0  0
  1  2  2  0
  1  3  1  0
  3  4  1  0
  4  5  1  0
  6  1  1  0
  7  6  1  0
  6  8  1  0
  8  9  1  0
  9 10  1  0
  9 11  2  0
 10 12  1  0
 12 13  1  0
 13 14  2  0
 15 13  1  0
 14 16  1  0
 14 17  1  0
 18 15  2  0
 16 19  1  0
 16 20  2  0
 17 21  2  0
 21 18  1  0
  4 22  2  0
  4 23  1  0
 24 23  1  0
 24 25  1  0
 25 26  1  0
 25 27  1  0
 26 28  1  0
 27 29  1  0
 27 30  1  0
 30 28  1  0
 28 31  1  0
 30 32  1  0
 33 31  1  0
 34 31  1  0
 35 33  2  0
 33 36  1  0
 37 34  2  0
 38 35  1  0
 36 39  2  0
 36 37  1  0
 40 38  2  0
 40 39  1  0
 39 41  1  0
  6 42  1  6
  7 43  1  0
  7 44  1  0
  8 45  1  0
  8 46  1  0
 12 47  1  0
 12 48  1  0
 15 49  1  0
 17 50  1  0
 18 51  1  0
 21 52  1  0
 24 53  1  0
 24 54  1  0
 25 55  1  0
 27 56  1  0
 28 57  1  0
 29 58  1  0
 30 59  1  0
 32 60  1  0
 34 61  1  0
 38 62  1  0
 41 63  1  0
 41 64  1  0
M  CHG  3   5  -1  16   1  19  -1
M  END
>  <EmbedRMS>  (565) 
0.0868580178471266

$$$$

     RDKit          3D

 64 67  0  0  0  0  0  0  0  0999 V2000
   10.2880   43.7705   33.7994 C   0  0  0  0  0  0  0  0  0  0  0  0
   11.4092   43.5875   34.3586 O   0  0  0  0  0  0  0  0  0  0  0  0
    9.3676   42.7305   33.6983 O   0  0  0  0  0  0  0  0  0  0  0  0
    9.8848   41.2343   34.2848 P   0  0  0  0  0  5  0  0  0  0  0  0
   10.3691   41.4701   35.8736 O   0  0  0  0  0  1  0  0  0  0  0  0
    9.9570   45.1134   33.2446 C   0  0  2  0  0  0  0  0  0  0  0  0
   11.0660   46.0372   33.4891 N   0  0  0  0  0  0  0  0  0  0  0  0
    8.6475   45.6598   33.8505 C   0  0  0  0  0  0  0  0  0  0  0  0
    8.7223   45.8078   35.3416 C   0  0  0  0  0  0  0  0  0  0  0  0
    8.6587   44.6648   36.1418 O   0  0  0  0  0  0  0  0  0  0  0  0
    8.8626   46.9502   35.8573 O   0  0  0  0  0  0  0  0  0  0  0  0
    8.6786   44.7052   37.5639 C   0  0  0  0  0  0  0  0  0  0  0  0
    8.6819   43.2967   38.1050 C   0  0  0  0  0  0  0  0  0  0  0  0
    7.7133   42.3325   37.7105 C   0  0  0  0  0  0  0  0  0  0  0  0
    9.7093   42.9148   38.9878 C   0  0  0  0  0  0  0  0  0  0  0  0
    6.6284   42.6578   36.8226 N   0  0  0  0  0  4  0  0  0  0  0  0
    7.8302   41.0128   38.1815 C   0  0  0  0  0  0  0  0  0  0  0  0
    9.7954   41.6033   39.4564 C   0  0  0  0  0  0  0  0  0  0  0  0
    6.1156   41.6954   35.9834 O   0  0  0  0  0  1  0  0  0  0  0  0
    6.0374   43.7533   36.9111 O   0  0  0  0  0  0  0  0  0  0  0  0
    8.8616   40.6530   39.0494 C   0  0  0  0  0  0  0  0  0  0  0  0
    8.8068   40.1919   34.2115 O   0  0  0  0  0  0  0  0  0  0  0  0
   11.2359   40.7887   33.3686 O   0  0  0  0  0  0  0  0  0  0  0  0
   10.9146   40.6879   31.9955 C   0  0  0  0  0  0  0  0  0  0  0  0
   11.5257   39.3871   31.4366 C   0  0  0  0  0  0  0  0  0  0  0  0
   12.7489   39.0894   32.0820 O   0  0  0  0  0  0  0  0  0  0  0  0
   10.6121   38.1892   31.6462 C   0  0  0  0  0  0  0  0  0  0  0  0
   12.9372   37.6828   32.0302 C   0  0  0  0  0  0  0  0  0  0  0  0
    9.6149   38.0838   30.6538 O   0  0  0  0  0  0  0  0  0  0  0  0
   11.5793   37.0137   31.7014 C   0  0  0  0  0  0  0  0  0  0  0  0
   13.4906   37.2171   33.3243 N   0  0  0  0  0  0  0  0  0  0  0  0
   11.6217   36.3253   30.4725 O   0  0  0  0  0  0  0  0  0  0  0  0
   14.4763   36.3267   33.5731 C   0  0  0  0  0  0  0  0  0  0  0  0
   13.1181   37.6309   34.5695 C   0  0  0  0  0  0  0  0  0  0  0  0
   15.2065   35.6138   32.6740 N   0  0  0  0  0  0  0  0  0  0  0  0
   14.6735   36.2270   34.9185 C   0  0  0  0  0  0  0  0  0  0  0  0
   13.8228   37.0451   35.5788 N   0  0  0  0  0  0  0  0  0  0  0  0
   16.1638   34.7593   33.1547 C   0  0  0  0  0  0  0  0  0  0  0  0
   15.6518   35.3490   35.4132 C   0  0  0  0  0  0  0  0  0  0  0  0
   16.3794   34.6308   34.5042 N   0  0  0  0  0  0  0  0  0  0  0  0
   15.9005   35.1931   36.8090 N   0  0  0  0  0  0  0  0  0  0  0  0
    9.8105   45.0037   32.1464 H   0  0  0  0  0  0  0  0  0  0  0  0
   11.8892   45.7223   32.9246 H   0  0  0  0  0  0  0  0  0  0  0  0
   10.8067   46.9751   33.1050 H   0  0  0  0  0  0  0  0  0  0  0  0
    8.4072   46.6424   33.3887 H   0  0  0  0  0  0  0  0  0  0  0  0
    7.8084   44.9742   33.6024 H   0  0  0  0  0  0  0  0  0  0  0  0
    9.5834   45.2603   37.8962 H   0  0  0  0  0  0  0  0  0  0  0  0
    7.7904   45.2523   37.9444 H   0  0  0  0  0  0  0  0  0  0  0  0
   10.4580   43.6301   39.3053 H   0  0  0  0  0  0  0  0  0  0  0  0
    7.1096   40.2606   37.8865 H   0  0  0  0  0  0  0  0  0  0  0  0
   10.5941   41.3214   40.1304 H   0  0  0  0  0  0  0  0  0  0  0  0
    8.9348   39.6350   39.4096 H   0  0  0  0  0  0  0  0  0  0  0  0
    9.8244   40.7174   31.7587 H   0  0  0  0  0  0  0  0  0  0  0  0
   11.3817   41.5505   31.4739 H   0  0  0  0  0  0  0  0  0  0  0  0
   11.7286   39.5291   30.3506 H   0  0  0  0  0  0  0  0  0  0  0  0
   10.1137   38.2716   32.6380 H   0  0  0  0  0  0  0  0  0  0  0  0
   13.6725   37.4638   31.2241 H   0  0  0  0  0  0  0  0  0  0  0  0
   10.0535   38.1084   29.7639 H   0  0  0  0  0  0  0  0  0  0  0  0
   11.2646   36.3134   32.5107 H   0  0  0  0  0  0  0  0  0  0  0  0
   12.1550   35.5033   30.6316 H   0  0  0  0  0  0  0  0  0  0  0  0
   12.3361   38.3587   34.7452 H   0  0  0  0  0  0  0  0  0  0  0  0
   16.7573   34.1789   32.4619 H   0  0  0  0  0  0  0  0  0  0  0  0
   15.3532   35.7353   37.5139 H   0  0  0  0  0  0  0  0  0  0  0  0
   16.6365   34.5314   37.1415 H   0  0  0  0  0  0  0  0  0  0  0  0
  1  2  2  0
  1  3  1  0
  3  4  1  0
  4  5  1  0
  6  1  1  0
  7  6  1  0
  6  8  1  0
  8  9  1  0
  9 10  1  0
  9 11  2  0
 10 12  1  0
 12 13  1  0
 13 14  2  0
 15 13  1  0
 14 16  1  0
 14 17  1  0
 18 15  2  0
 16 19  1  0
 16 20  2  0
 17 21  2  0
 21 18  1  0
  4 22  2  0
  4 23  1  0
 24 23  1  0
 24 25  1  0
 25 26  1  0
 25 27  1  0
 26 28  1  0
 27 29  1  0
 27 30  1  0
 30 28  1  0
 28 31  1  0
 30 32  1  0
 33 31  1  0
 34 31  1  0
 35 33  2  0
 33 36  1  0
 37 34  2  0
 38 35  1  0
 36 39  2  0
 36 37  1  0
 40 38  2  0
 40 39  1  0
 39 41  1  0
  6 42  1  6
  7 43  1  0
  7 44  1  0
  8 45  1  0
  8 46  1  0
 12 47  1  0
 12 48  1  0
 15 49  1  0
 17 50  1  0
 18 51  1  0
 21 52  1  0
 24 53  1  0
 24 54  1  0
 25 55  1  0
 27 56  1  0
 28 57  1  0
 29 58  1  0
 30 59  1  0
 32 60  1  0
 34 61  1  0
 38 62  1  0
 41 63  1  0
 41 64  1  0
M  CHG  3   5  -1  16   1  19  -1
M  END
>  <EmbedRMS>  (566) 
0.08781658069623331

$$$$

     RDKit          3D

 64 67  0  0  0  0  0  0  0  0999 V2000
   10.2830   43.7754   33.8079 C   0  0  0  0  0  0  0  0  0  0  0  0
   11.4086   43.5914   34.3580 O   0  0  0  0  0  0  0  0  0  0  0  0
    9.3670   42.7317   33.7013 O   0  0  0  0  0  0  0  0  0  0  0  0
    9.8865   41.2344   34.2838 P   0  0  0  0  0  5  0  0  0  0  0  0
   10.3666   41.4693   35.8745 O   0  0  0  0  0  1  0  0  0  0  0  0
    9.9541   45.1112   33.2425 C   0  0  2  0  0  0  0  0  0  0  0  0
   11.0720   46.0272   33.4849 N   0  0  0  0  0  0  0  0  0  0  0  0
    8.6397   45.6444   33.8505 C   0  0  0  0  0  0  0  0  0  0  0  0
    8.2182   46.9259   33.2015 C   0  0  0  0  0  0  0  0  0  0  0  0
    7.7201   46.9012   31.8962 O   0  0  0  0  0  0  0  0  0  0  0  0
    8.3397   48.0161   33.8243 O   0  0  0  0  0  0  0  0  0  0  0  0
    7.3216   48.0799   31.2007 C   0  0  0  0  0  0  0  0  0  0  0  0
    6.8195   47.7480   29.8131 C   0  0  0  0  0  0  0  0  0  0  0  0
    6.8889   48.6925   28.7530 C   0  0  0  0  0  0  0  0  0  0  0  0
    6.2412   46.4866   29.5660 C   0  0  0  0  0  0  0  0  0  0  0  0
    7.3727   50.0316   28.9580 N   0  0  0  0  0  4  0  0  0  0  0  0
    6.4634   48.3149   27.4673 C   0  0  0  0  0  0  0  0  0  0  0  0
    5.8066   46.1397   28.2861 C   0  0  0  0  0  0  0  0  0  0  0  0
    8.0088   50.6959   27.9345 O   0  0  0  0  0  1  0  0  0  0  0  0
    7.0522   50.6712   29.9809 O   0  0  0  0  0  0  0  0  0  0  0  0
    5.9285   47.0473   27.2366 C   0  0  0  0  0  0  0  0  0  0  0  0
    8.8091   40.1913   34.2077 O   0  0  0  0  0  0  0  0  0  0  0  0
   11.2390   40.7910   33.3682 O   0  0  0  0  0  0  0  0  0  0  0  0
   10.9194   40.6896   31.9946 C   0  0  0  0  0  0  0  0  0  0  0  0
   11.5171   39.3801   31.4397 C   0  0  0  0  0  0  0  0  0  0  0  0
   12.7478   39.0862   32.0734 O   0  0  0  0  0  0  0  0  0  0  0  0
   10.6031   38.1891   31.6666 C   0  0  0  0  0  0  0  0  0  0  0  0
   12.9335   37.6797   32.0280 C   0  0  0  0  0  0  0  0  0  0  0  0
    9.6397   38.0777   30.6456 O   0  0  0  0  0  0  0  0  0  0  0  0
   11.5739   37.0154   31.7057 C   0  0  0  0  0  0  0  0  0  0  0  0
   13.4903   37.2178   33.3231 N   0  0  0  0  0  0  0  0  0  0  0  0
   11.6211   36.3376   30.4695 O   0  0  0  0  0  0  0  0  0  0  0  0
   14.4761   36.3273   33.5725 C   0  0  0  0  0  0  0  0  0  0  0  0
   13.1179   37.6317   34.5684 C   0  0  0  0  0  0  0  0  0  0  0  0
   15.2063   35.6139   32.6737 N   0  0  0  0  0  0  0  0  0  0  0  0
   14.6733   36.2277   34.9179 C   0  0  0  0  0  0  0  0  0  0  0  0
   13.8225   37.0459   35.5779 N   0  0  0  0  0  0  0  0  0  0  0  0
   16.1636   34.7594   33.1546 C   0  0  0  0  0  0  0  0  0  0  0  0
   15.6515   35.3494   35.4129 C   0  0  0  0  0  0  0  0  0  0  0  0
   16.3791   34.6311   34.5041 N   0  0  0  0  0  0  0  0  0  0  0  0
   15.9001   35.1935   36.8088 N   0  0  0  0  0  0  0  0  0  0  0  0
    9.8239   44.9832   32.1446 H   0  0  0  0  0  0  0  0  0  0  0  0
   10.9368   46.8887   32.9076 H   0  0  0  0  0  0  0  0  0  0  0  0
   11.0791   46.3197   34.4900 H   0  0  0  0  0  0  0  0  0  0  0  0
    8.7554   45.7930   34.9471 H   0  0  0  0  0  0  0  0  0  0  0  0
    7.8265   44.9024   33.6966 H   0  0  0  0  0  0  0  0  0  0  0  0
    6.5108   48.5889   31.7650 H   0  0  0  0  0  0  0  0  0  0  0  0
    8.2033   48.7529   31.1354 H   0  0  0  0  0  0  0  0  0  0  0  0
    6.1329   45.7600   30.3614 H   0  0  0  0  0  0  0  0  0  0  0  0
    6.5202   49.0158   26.6441 H   0  0  0  0  0  0  0  0  0  0  0  0
    5.3763   45.1626   28.1077 H   0  0  0  0  0  0  0  0  0  0  0  0
    5.5934   46.7741   26.2443 H   0  0  0  0  0  0  0  0  0  0  0  0
   11.4007   41.5437   31.4721 H   0  0  0  0  0  0  0  0  0  0  0  0
    9.8315   40.7396   31.7549 H   0  0  0  0  0  0  0  0  0  0  0  0
   11.6983   39.5042   30.3470 H   0  0  0  0  0  0  0  0  0  0  0  0
   10.1090   38.2632   32.6649 H   0  0  0  0  0  0  0  0  0  0  0  0
   13.6656   37.4541   31.2207 H   0  0  0  0  0  0  0  0  0  0  0  0
    8.8965   38.6901   30.8851 H   0  0  0  0  0  0  0  0  0  0  0  0
   11.2846   36.3060   32.5175 H   0  0  0  0  0  0  0  0  0  0  0  0
   10.8523   35.7095   30.4590 H   0  0  0  0  0  0  0  0  0  0  0  0
   12.3353   38.3588   34.7440 H   0  0  0  0  0  0  0  0  0  0  0  0
   16.7570   34.1788   32.4619 H   0  0  0  0  0  0  0  0  0  0  0  0
   15.3529   35.7359   37.5136 H   0  0  0  0  0  0  0  0  0  0  0  0
   16.6360   34.5317   37.1413 H   0  0  0  0  0  0  0  0  0  0  0  0
  1  2  2  0
  1  3  1  0
  3  4  1  0
  4  5  1  0
  6  1  1  0
  7  6  1  0
  6  8  1  0
  8  9  1  0
  9 10  1  0
  9 11  2  0
 10 12  1  0
 12 13  1  0
 13 14  2  0
 15 13  1  0
 14 16  1  0
 14 17  1  0
 18 15  2  0
 16 19  1  0
 16 20  2  0
 17 21  2  0
 21 18  1  0
  4 22  2  0
  4 23  1  0
 24 23  1  0
 24 25  1  0
 25 26  1  0
 25 27  1  0
 26 28  1  0
 27 29  1  0
 27 30  1  0
 30 28  1  0
 28 31  1  0
 30 32  1  0
 33 31  1  0
 34 31  1  0
 35 33  2  0
 33 36  1  0
 37 34  2  0
 38 35  1  0
 36 39  2  0
 36 37  1  0
 40 38  2  0
 40 39  1  0
 39 41  1  0
  6 42  1  6
  7 43  1  0
  7 44  1  0
  8 45  1  0
  8 46  1  0
 12 47  1  0
 12 48  1  0
 15 49  1  0
 17 50  1  0
 18 51  1  0
 21 52  1  0
 24 53  1  0
 24 54  1  0
 25 55  1  0
 27 56  1  0
 28 57  1  0
 29 58  1  0
 30 59  1  0
 32 60  1  0
 34 61  1  0
 38 62  1  0
 41 63  1  0
 41 64  1  0
M  CHG  3   5  -1  16   1  19  -1
M  END
>  <EmbedRMS>  (567) 
0.08916429558091625

$$$$

     RDKit          3D

 64 67  0  0  0  0  0  0  0  0999 V2000
   10.2830   43.7746   33.8123 C   0  0  0  0  0  0  0  0  0  0  0  0
   11.4065   43.5903   34.3663 O   0  0  0  0  0  0  0  0  0  0  0  0
    9.3712   42.7295   33.6917 O   0  0  0  0  0  0  0  0  0  0  0  0
    9.8858   41.2340   34.2825 P   0  0  0  0  0  5  0  0  0  0  0  0
   10.3628   41.4715   35.8740 O   0  0  0  0  0  1  0  0  0  0  0  0
    9.9421   45.1215   33.2791 C   0  0  2  0  0  0  0  0  0  0  0  0
   11.0806   46.0258   33.4521 N   0  0  0  0  0  0  0  0  0  0  0  0
    8.6843   45.6889   33.9755 C   0  0  0  0  0  0  0  0  0  0  0  0
    8.9087   45.9955   35.4405 C   0  0  0  0  0  0  0  0  0  0  0  0
    8.3641   45.2265   36.4781 O   0  0  0  0  0  0  0  0  0  0  0  0
    9.6212   46.9875   35.7477 O   0  0  0  0  0  0  0  0  0  0  0  0
    7.4487   44.1481   36.2984 C   0  0  0  0  0  0  0  0  0  0  0  0
    7.0521   43.5553   37.6308 C   0  0  0  0  0  0  0  0  0  0  0  0
    6.7211   42.1805   37.7657 C   0  0  0  0  0  0  0  0  0  0  0  0
    6.9803   44.3893   38.7641 C   0  0  0  0  0  0  0  0  0  0  0  0
    6.6675   41.3012   36.6287 N   0  0  0  0  0  4  0  0  0  0  0  0
    6.4187   41.6683   39.0405 C   0  0  0  0  0  0  0  0  0  0  0  0
    6.6589   43.8646   40.0166 C   0  0  0  0  0  0  0  0  0  0  0  0
    6.0874   41.7199   35.4533 O   0  0  0  0  0  1  0  0  0  0  0  0
    6.9636   40.0950   36.7561 O   0  0  0  0  0  0  0  0  0  0  0  0
    6.3909   42.5047   40.1567 C   0  0  0  0  0  0  0  0  0  0  0  0
    8.8084   40.1913   34.2055 O   0  0  0  0  0  0  0  0  0  0  0  0
   11.2379   40.7889   33.3691 O   0  0  0  0  0  0  0  0  0  0  0  0
   10.9170   40.6895   31.9958 C   0  0  0  0  0  0  0  0  0  0  0  0
   11.5275   39.3896   31.4371 C   0  0  0  0  0  0  0  0  0  0  0  0
   12.7513   39.0912   32.0835 O   0  0  0  0  0  0  0  0  0  0  0  0
   10.6124   38.1916   31.6452 C   0  0  0  0  0  0  0  0  0  0  0  0
   12.9430   37.6849   32.0294 C   0  0  0  0  0  0  0  0  0  0  0  0
    9.6070   38.0859   30.6604 O   0  0  0  0  0  0  0  0  0  0  0  0
   11.5844   37.0185   31.6880 C   0  0  0  0  0  0  0  0  0  0  0  0
   13.4898   37.2162   33.3250 N   0  0  0  0  0  0  0  0  0  0  0  0
   11.6200   36.3061   30.4693 O   0  0  0  0  0  0  0  0  0  0  0  0
   14.4759   36.3263   33.5739 C   0  0  0  0  0  0  0  0  0  0  0  0
   13.1175   37.6307   34.5699 C   0  0  0  0  0  0  0  0  0  0  0  0
   15.2065   35.6138   32.6747 N   0  0  0  0  0  0  0  0  0  0  0  0
   14.6731   36.2267   34.9191 C   0  0  0  0  0  0  0  0  0  0  0  0
   13.8224   37.0450   35.5792 N   0  0  0  0  0  0  0  0  0  0  0  0
   16.1640   34.7595   33.1551 C   0  0  0  0  0  0  0  0  0  0  0  0
   15.6518   35.3489   35.4136 C   0  0  0  0  0  0  0  0  0  0  0  0
   16.3795   34.6310   34.5046 N   0  0  0  0  0  0  0  0  0  0  0  0
   15.9006   35.1931   36.8094 N   0  0  0  0  0  0  0  0  0  0  0  0
    9.7215   45.0148   32.1930 H   0  0  0  0  0  0  0  0  0  0  0  0
   11.8658   45.6875   32.8482 H   0  0  0  0  0  0  0  0  0  0  0  0
   10.8178   46.9629   33.0683 H   0  0  0  0  0  0  0  0  0  0  0  0
    8.3918   46.6326   33.4661 H   0  0  0  0  0  0  0  0  0  0  0  0
    7.8330   44.9926   33.8321 H   0  0  0  0  0  0  0  0  0  0  0  0
    6.5340   44.5134   35.7846 H   0  0  0  0  0  0  0  0  0  0  0  0
    7.9439   43.3771   35.6792 H   0  0  0  0  0  0  0  0  0  0  0  0
    7.1843   45.4498   38.6846 H   0  0  0  0  0  0  0  0  0  0  0  0
    6.1754   40.6207   39.1659 H   0  0  0  0  0  0  0  0  0  0  0  0
    6.6205   44.5144   40.8814 H   0  0  0  0  0  0  0  0  0  0  0  0
    6.1449   42.0999   41.1300 H   0  0  0  0  0  0  0  0  0  0  0  0
    9.8271   40.7197   31.7576 H   0  0  0  0  0  0  0  0  0  0  0  0
   11.3851   41.5523   31.4752 H   0  0  0  0  0  0  0  0  0  0  0  0
   11.7323   39.5335   30.3516 H   0  0  0  0  0  0  0  0  0  0  0  0
   10.1218   38.2685   32.6413 H   0  0  0  0  0  0  0  0  0  0  0  0
   13.6883   37.4701   31.2319 H   0  0  0  0  0  0  0  0  0  0  0  0
   10.0256   38.1752   29.7657 H   0  0  0  0  0  0  0  0  0  0  0  0
   11.2794   36.3123   32.4916 H   0  0  0  0  0  0  0  0  0  0  0  0
   11.9870   36.9098   29.7715 H   0  0  0  0  0  0  0  0  0  0  0  0
   12.3364   38.3595   34.7453 H   0  0  0  0  0  0  0  0  0  0  0  0
   16.7577   34.1794   32.4623 H   0  0  0  0  0  0  0  0  0  0  0  0
   16.6368   34.5316   37.1418 H   0  0  0  0  0  0  0  0  0  0  0  0
   15.3532   35.7351   37.5144 H   0  0  0  0  0  0  0  0  0  0  0  0
  1  2  2  0
  1  3  1  0
  3  4  1  0
  4  5  1  0
  6  1  1  0
  7  6  1  0
  6  8  1  0
  8  9  1  0
  9 10  1  0
  9 11  2  0
 10 12  1  0
 12 13  1  0
 13 14  2  0
 15 13  1  0
 14 16  1  0
 14 17  1  0
 18 15  2  0
 16 19  1  0
 16 20  2  0
 17 21  2  0
 21 18  1  0
  4 22  2  0
  4 23  1  0
 24 23  1  0
 24 25  1  0
 25 26  1  0
 25 27  1  0
 26 28  1  0
 27 29  1  0
 27 30  1  0
 30 28  1  0
 28 31  1  0
 30 32  1  0
 33 31  1  0
 34 31  1  0
 35 33  2  0
 33 36  1  0
 37 34  2  0
 38 35  1  0
 36 39  2  0
 36 37  1  0
 40 38  2  0
 40 39  1  0
 39 41  1  0
  6 42  1  6
  7 43  1  0
  7 44  1  0
  8 45  1  0
  8 46  1  0
 12 47  1  0
 12 48  1  0
 15 49  1  0
 17 50  1  0
 18 51  1  0
 21 52  1  0
 24 53  1  0
 24 54  1  0
 25 55  1  0
 27 56  1  0
 28 57  1  0
 29 58  1  0
 30 59  1  0
 32 60  1  0
 34 61  1  0
 38 62  1  0
 41 63  1  0
 41 64  1  0
M  CHG  3   5  -1  16   1  19  -1
M  END
>  <EmbedRMS>  (568) 
0.08788633352944004

$$$$

     RDKit          3D

 64 67  0  0  0  0  0  0  0  0999 V2000
   10.2842   43.7732   33.8094 C   0  0  0  0  0  0  0  0  0  0  0  0
   11.4121   43.5859   34.3519 O   0  0  0  0  0  0  0  0  0  0  0  0
    9.3656   42.7321   33.7049 O   0  0  0  0  0  0  0  0  0  0  0  0
    9.8850   41.2342   34.2854 P   0  0  0  0  0  5  0  0  0  0  0  0
   10.3651   41.4673   35.8759 O   0  0  0  0  0  1  0  0  0  0  0  0
    9.9634   45.1073   33.2356 C   0  0  2  0  0  0  0  0  0  0  0  0
   11.0637   46.0404   33.4899 N   0  0  0  0  0  0  0  0  0  0  0  0
    8.6070   45.6528   33.7386 C   0  0  0  0  0  0  0  0  0  0  0  0
    8.5921   46.0000   35.2005 C   0  0  0  0  0  0  0  0  0  0  0  0
    8.9710   45.0463   36.1536 O   0  0  0  0  0  0  0  0  0  0  0  0
    8.2000   47.1436   35.5604 O   0  0  0  0  0  0  0  0  0  0  0  0
    8.9035   45.2793   37.5599 C   0  0  0  0  0  0  0  0  0  0  0  0
    9.9074   46.3285   37.9854 C   0  0  0  0  0  0  0  0  0  0  0  0
   11.3051   46.1829   37.7631 C   0  0  0  0  0  0  0  0  0  0  0  0
    9.4266   47.5154   38.5698 C   0  0  0  0  0  0  0  0  0  0  0  0
   11.8716   44.9915   37.1871 N   0  0  0  0  0  4  0  0  0  0  0  0
   12.1651   47.2422   38.1054 C   0  0  0  0  0  0  0  0  0  0  0  0
   10.3006   48.5460   38.9157 C   0  0  0  0  0  0  0  0  0  0  0  0
   13.0513   45.0649   36.4823 O   0  0  0  0  0  1  0  0  0  0  0  0
   11.4143   43.8659   37.4695 O   0  0  0  0  0  0  0  0  0  0  0  0
   11.6664   48.4117   38.6795 C   0  0  0  0  0  0  0  0  0  0  0  0
    8.8079   40.1910   34.2080 O   0  0  0  0  0  0  0  0  0  0  0  0
   11.2378   40.7918   33.3698 O   0  0  0  0  0  0  0  0  0  0  0  0
   10.9182   40.6908   31.9964 C   0  0  0  0  0  0  0  0  0  0  0  0
   11.5172   39.3826   31.4415 C   0  0  0  0  0  0  0  0  0  0  0  0
   12.7492   39.0895   32.0759 O   0  0  0  0  0  0  0  0  0  0  0  0
   10.6035   38.1900   31.6660 C   0  0  0  0  0  0  0  0  0  0  0  0
   12.9400   37.6836   32.0277 C   0  0  0  0  0  0  0  0  0  0  0  0
    9.6376   38.0786   30.6474 O   0  0  0  0  0  0  0  0  0  0  0  0
   11.5803   37.0205   31.6937 C   0  0  0  0  0  0  0  0  0  0  0  0
   13.4902   37.2178   33.3238 N   0  0  0  0  0  0  0  0  0  0  0  0
   11.6118   36.3194   30.4681 O   0  0  0  0  0  0  0  0  0  0  0  0
   14.4758   36.3272   33.5731 C   0  0  0  0  0  0  0  0  0  0  0  0
   13.1176   37.6318   34.5688 C   0  0  0  0  0  0  0  0  0  0  0  0
   15.2064   35.6142   32.6742 N   0  0  0  0  0  0  0  0  0  0  0  0
   14.6729   36.2274   34.9184 C   0  0  0  0  0  0  0  0  0  0  0  0
   13.8221   37.0458   35.5784 N   0  0  0  0  0  0  0  0  0  0  0  0
   16.1637   34.7597   33.1549 C   0  0  0  0  0  0  0  0  0  0  0  0
   15.6514   35.3493   35.4132 C   0  0  0  0  0  0  0  0  0  0  0  0
   16.3791   34.6312   34.5043 N   0  0  0  0  0  0  0  0  0  0  0  0
   15.9001   35.1935   36.8091 N   0  0  0  0  0  0  0  0  0  0  0  0
    9.8800   44.9677   32.1354 H   0  0  0  0  0  0  0  0  0  0  0  0
   10.8520   46.9448   33.0089 H   0  0  0  0  0  0  0  0  0  0  0  0
   11.1359   46.2430   34.5135 H   0  0  0  0  0  0  0  0  0  0  0  0
    8.3507   46.5581   33.1455 H   0  0  0  0  0  0  0  0  0  0  0  0
    7.8066   44.9070   33.5440 H   0  0  0  0  0  0  0  0  0  0  0  0
    7.8654   45.5757   37.8271 H   0  0  0  0  0  0  0  0  0  0  0  0
    9.0975   44.3318   38.1015 H   0  0  0  0  0  0  0  0  0  0  0  0
    8.3669   47.6527   38.7469 H   0  0  0  0  0  0  0  0  0  0  0  0
   13.2319   47.1566   37.9426 H   0  0  0  0  0  0  0  0  0  0  0  0
    9.9162   49.4546   39.3609 H   0  0  0  0  0  0  0  0  0  0  0  0
   12.3420   49.2148   38.9447 H   0  0  0  0  0  0  0  0  0  0  0  0
   11.3986   41.5457   31.4744 H   0  0  0  0  0  0  0  0  0  0  0  0
    9.8302   40.7397   31.7568 H   0  0  0  0  0  0  0  0  0  0  0  0
   11.6987   39.5094   30.3493 H   0  0  0  0  0  0  0  0  0  0  0  0
   10.1128   38.2588   32.6665 H   0  0  0  0  0  0  0  0  0  0  0  0
   13.6800   37.4631   31.2266 H   0  0  0  0  0  0  0  0  0  0  0  0
    8.8952   38.6909   30.8891 H   0  0  0  0  0  0  0  0  0  0  0  0
   11.2831   36.3061   32.4929 H   0  0  0  0  0  0  0  0  0  0  0  0
   11.8859   36.9591   29.7593 H   0  0  0  0  0  0  0  0  0  0  0  0
   12.3361   38.3601   34.7442 H   0  0  0  0  0  0  0  0  0  0  0  0
   16.7572   34.1793   32.4621 H   0  0  0  0  0  0  0  0  0  0  0  0
   15.3528   35.7357   37.5140 H   0  0  0  0  0  0  0  0  0  0  0  0
   16.6362   34.5318   37.1415 H   0  0  0  0  0  0  0  0  0  0  0  0
  1  2  2  0
  1  3  1  0
  3  4  1  0
  4  5  1  0
  6  1  1  0
  7  6  1  0
  6  8  1  0
  8  9  1  0
  9 10  1  0
  9 11  2  0
 10 12  1  0
 12 13  1  0
 13 14  2  0
 15 13  1  0
 14 16  1  0
 14 17  1  0
 18 15  2  0
 16 19  1  0
 16 20  2  0
 17 21  2  0
 21 18  1  0
  4 22  2  0
  4 23  1  0
 24 23  1  0
 24 25  1  0
 25 26  1  0
 25 27  1  0
 26 28  1  0
 27 29  1  0
 27 30  1  0
 30 28  1  0
 28 31  1  0
 30 32  1  0
 33 31  1  0
 34 31  1  0
 35 33  2  0
 33 36  1  0
 37 34  2  0
 38 35  1  0
 36 39  2  0
 36 37  1  0
 40 38  2  0
 40 39  1  0
 39 41  1  0
  6 42  1  6
  7 43  1  0
  7 44  1  0
  8 45  1  0
  8 46  1  0
 12 47  1  0
 12 48  1  0
 15 49  1  0
 17 50  1  0
 18 51  1  0
 21 52  1  0
 24 53  1  0
 24 54  1  0
 25 55  1  0
 27 56  1  0
 28 57  1  0
 29 58  1  0
 30 59  1  0
 32 60  1  0
 34 61  1  0
 38 62  1  0
 41 63  1  0
 41 64  1  0
M  CHG  3   5  -1  16   1  19  -1
M  END
>  <EmbedRMS>  (569) 
0.0883281002536057

$$$$

     RDKit          3D

 64 67  0  0  0  0  0  0  0  0999 V2000
   10.2865   43.7710   33.8022 C   0  0  0  0  0  0  0  0  0  0  0  0
   11.4119   43.5862   34.3521 O   0  0  0  0  0  0  0  0  0  0  0  0
    9.3672   42.7307   33.6990 O   0  0  0  0  0  0  0  0  0  0  0  0
    9.8854   41.2344   34.2844 P   0  0  0  0  0  5  0  0  0  0  0  0
   10.3650   41.4711   35.8749 O   0  0  0  0  0  1  0  0  0  0  0  0
    9.9550   45.1131   33.2494 C   0  0  2  0  0  0  0  0  0  0  0  0
   11.0680   46.0344   33.4865 N   0  0  0  0  0  0  0  0  0  0  0  0
    8.6207   45.6658   33.8079 C   0  0  0  0  0  0  0  0  0  0  0  0
    8.4986   45.5303   35.2989 C   0  0  0  0  0  0  0  0  0  0  0  0
    9.1740   46.4228   36.1383 O   0  0  0  0  0  0  0  0  0  0  0  0
    7.8169   44.5857   35.7817 O   0  0  0  0  0  0  0  0  0  0  0  0
    9.2221   46.2812   37.5580 C   0  0  0  0  0  0  0  0  0  0  0  0
   10.0052   45.0466   37.9477 C   0  0  0  0  0  0  0  0  0  0  0  0
    9.5016   44.0652   38.8414 C   0  0  0  0  0  0  0  0  0  0  0  0
   11.3179   44.9162   37.4591 C   0  0  0  0  0  0  0  0  0  0  0  0
    8.1759   44.1448   39.3854 N   0  0  0  0  0  4  0  0  0  0  0  0
   10.3236   42.9875   39.2143 C   0  0  0  0  0  0  0  0  0  0  0  0
   12.1124   43.8295   37.8264 C   0  0  0  0  0  0  0  0  0  0  0  0
    7.0897   44.2094   38.5445 O   0  0  0  0  0  1  0  0  0  0  0  0
    7.9867   43.8987   40.5944 O   0  0  0  0  0  0  0  0  0  0  0  0
   11.6167   42.8675   38.7040 C   0  0  0  0  0  0  0  0  0  0  0  0
    8.8081   40.1914   34.2088 O   0  0  0  0  0  0  0  0  0  0  0  0
   11.2380   40.7899   33.3693 O   0  0  0  0  0  0  0  0  0  0  0  0
   10.9187   40.6888   31.9955 C   0  0  0  0  0  0  0  0  0  0  0  0
   11.5180   39.3802   31.4401 C   0  0  0  0  0  0  0  0  0  0  0  0
   12.7484   39.0876   32.0751 O   0  0  0  0  0  0  0  0  0  0  0  0
   10.6053   38.1875   31.6657 C   0  0  0  0  0  0  0  0  0  0  0  0
   12.9361   37.6817   32.0289 C   0  0  0  0  0  0  0  0  0  0  0  0
    9.6424   38.0739   30.6445 O   0  0  0  0  0  0  0  0  0  0  0  0
   11.5765   37.0159   31.7047 C   0  0  0  0  0  0  0  0  0  0  0  0
   13.4908   37.2183   33.3237 N   0  0  0  0  0  0  0  0  0  0  0  0
   11.6103   36.3400   30.4680 O   0  0  0  0  0  0  0  0  0  0  0  0
   14.4762   36.3274   33.5728 C   0  0  0  0  0  0  0  0  0  0  0  0
   13.1181   37.6319   34.5690 C   0  0  0  0  0  0  0  0  0  0  0  0
   15.2063   35.6141   32.6739 N   0  0  0  0  0  0  0  0  0  0  0  0
   14.6733   36.2276   34.9183 C   0  0  0  0  0  0  0  0  0  0  0  0
   13.8226   37.0458   35.5784 N   0  0  0  0  0  0  0  0  0  0  0  0
   16.1635   34.7595   33.1546 C   0  0  0  0  0  0  0  0  0  0  0  0
   15.6515   35.3492   35.4130 C   0  0  0  0  0  0  0  0  0  0  0  0
   16.3791   34.6310   34.5041 N   0  0  0  0  0  0  0  0  0  0  0  0
   15.9002   35.1934   36.8089 N   0  0  0  0  0  0  0  0  0  0  0  0
    9.8392   44.9938   32.1496 H   0  0  0  0  0  0  0  0  0  0  0  0
   10.8793   46.9263   32.9736 H   0  0  0  0  0  0  0  0  0  0  0  0
   11.1291   46.2689   34.5025 H   0  0  0  0  0  0  0  0  0  0  0  0
    7.7782   45.1213   33.3271 H   0  0  0  0  0  0  0  0  0  0  0  0
    8.5099   46.7360   33.5307 H   0  0  0  0  0  0  0  0  0  0  0  0
    8.1934   46.2960   37.9661 H   0  0  0  0  0  0  0  0  0  0  0  0
    9.7400   47.1681   37.9797 H   0  0  0  0  0  0  0  0  0  0  0  0
   11.7320   45.6658   36.7971 H   0  0  0  0  0  0  0  0  0  0  0  0
    9.9533   42.2294   39.8931 H   0  0  0  0  0  0  0  0  0  0  0  0
   13.1179   43.7386   37.4364 H   0  0  0  0  0  0  0  0  0  0  0  0
   12.2361   42.0276   38.9912 H   0  0  0  0  0  0  0  0  0  0  0  0
   11.3991   41.5437   31.4734 H   0  0  0  0  0  0  0  0  0  0  0  0
    9.8307   40.7374   31.7558 H   0  0  0  0  0  0  0  0  0  0  0  0
   11.7000   39.5050   30.3477 H   0  0  0  0  0  0  0  0  0  0  0  0
   10.1103   38.2618   32.6637 H   0  0  0  0  0  0  0  0  0  0  0  0
   13.6696   37.4588   31.2223 H   0  0  0  0  0  0  0  0  0  0  0  0
    8.9001   38.6884   30.8813 H   0  0  0  0  0  0  0  0  0  0  0  0
   11.2690   36.3069   32.5091 H   0  0  0  0  0  0  0  0  0  0  0  0
   12.1427   35.5152   30.6153 H   0  0  0  0  0  0  0  0  0  0  0  0
   12.3359   38.3595   34.7446 H   0  0  0  0  0  0  0  0  0  0  0  0
   16.7569   34.1789   32.4618 H   0  0  0  0  0  0  0  0  0  0  0  0
   16.6361   34.5315   37.1414 H   0  0  0  0  0  0  0  0  0  0  0  0
   15.3530   35.7357   37.5138 H   0  0  0  0  0  0  0  0  0  0  0  0
  1  2  2  0
  1  3  1  0
  3  4  1  0
  4  5  1  0
  6  1  1  0
  7  6  1  0
  6  8  1  0
  8  9  1  0
  9 10  1  0
  9 11  2  0
 10 12  1  0
 12 13  1  0
 13 14  2  0
 15 13  1  0
 14 16  1  0
 14 17  1  0
 18 15  2  0
 16 19  1  0
 16 20  2  0
 17 21  2  0
 21 18  1  0
  4 22  2  0
  4 23  1  0
 24 23  1  0
 24 25  1  0
 25 26  1  0
 25 27  1  0
 26 28  1  0
 27 29  1  0
 27 30  1  0
 30 28  1  0
 28 31  1  0
 30 32  1  0
 33 31  1  0
 34 31  1  0
 35 33  2  0
 33 36  1  0
 37 34  2  0
 38 35  1  0
 36 39  2  0
 36 37  1  0
 40 38  2  0
 40 39  1  0
 39 41  1  0
  6 42  1  6
  7 43  1  0
  7 44  1  0
  8 45  1  0
  8 46  1  0
 12 47  1  0
 12 48  1  0
 15 49  1  0
 17 50  1  0
 18 51  1  0
 21 52  1  0
 24 53  1  0
 24 54  1  0
 25 55  1  0
 27 56  1  0
 28 57  1  0
 29 58  1  0
 30 59  1  0
 32 60  1  0
 34 61  1  0
 38 62  1  0
 41 63  1  0
 41 64  1  0
M  CHG  3   5  -1  16   1  19  -1
M  END
>  <EmbedRMS>  (570) 
0.08912195208767207

$$$$

     RDKit          3D

 64 67  0  0  0  0  0  0  0  0999 V2000
   10.2867   43.7710   33.8018 C   0  0  0  0  0  0  0  0  0  0  0  0
   11.4110   43.5871   34.3547 O   0  0  0  0  0  0  0  0  0  0  0  0
    9.3676   42.7305   33.6981 O   0  0  0  0  0  0  0  0  0  0  0  0
    9.8857   41.2345   34.2843 P   0  0  0  0  0  5  0  0  0  0  0  0
   10.3657   41.4720   35.8747 O   0  0  0  0  0  1  0  0  0  0  0  0
    9.9541   45.1135   33.2499 C   0  0  2  0  0  0  0  0  0  0  0  0
   11.0679   46.0330   33.4853 N   0  0  0  0  0  0  0  0  0  0  0  0
    8.6251   45.6661   33.8193 C   0  0  0  0  0  0  0  0  0  0  0  0
    8.5507   45.5890   35.3175 C   0  0  0  0  0  0  0  0  0  0  0  0
    9.0940   46.6156   36.0993 O   0  0  0  0  0  0  0  0  0  0  0  0
    8.0294   44.5754   35.8614 O   0  0  0  0  0  0  0  0  0  0  0  0
    9.2393   46.5090   37.5147 C   0  0  0  0  0  0  0  0  0  0  0  0
   10.3696   45.5619   37.8541 C   0  0  0  0  0  0  0  0  0  0  0  0
   11.7260   45.8379   37.5201 C   0  0  0  0  0  0  0  0  0  0  0  0
   10.0434   44.3143   38.4192 C   0  0  0  0  0  0  0  0  0  0  0  0
   12.1345   47.0858   36.9251 N   0  0  0  0  0  4  0  0  0  0  0  0
   12.7006   44.8486   37.7544 C   0  0  0  0  0  0  0  0  0  0  0  0
   11.0287   43.3548   38.6506 C   0  0  0  0  0  0  0  0  0  0  0  0
   11.5754   48.2787   37.3226 O   0  0  0  0  0  1  0  0  0  0  0  0
   13.1265   47.1193   36.1673 O   0  0  0  0  0  0  0  0  0  0  0  0
   12.3540   43.6196   38.3156 C   0  0  0  0  0  0  0  0  0  0  0  0
    8.8080   40.1917   34.2095 O   0  0  0  0  0  0  0  0  0  0  0  0
   11.2381   40.7896   33.3691 O   0  0  0  0  0  0  0  0  0  0  0  0
   10.9192   40.6895   31.9953 C   0  0  0  0  0  0  0  0  0  0  0  0
   11.5175   39.3803   31.4401 C   0  0  0  0  0  0  0  0  0  0  0  0
   12.7481   39.0859   32.0737 O   0  0  0  0  0  0  0  0  0  0  0  0
   10.6031   38.1894   31.6667 C   0  0  0  0  0  0  0  0  0  0  0  0
   12.9333   37.6793   32.0282 C   0  0  0  0  0  0  0  0  0  0  0  0
    9.6400   38.0788   30.6454 O   0  0  0  0  0  0  0  0  0  0  0  0
   11.5736   37.0153   31.7063 C   0  0  0  0  0  0  0  0  0  0  0  0
   13.4904   37.2175   33.3230 N   0  0  0  0  0  0  0  0  0  0  0  0
   11.6213   36.3379   30.4698 O   0  0  0  0  0  0  0  0  0  0  0  0
   14.4768   36.3276   33.5723 C   0  0  0  0  0  0  0  0  0  0  0  0
   13.1177   37.6313   34.5681 C   0  0  0  0  0  0  0  0  0  0  0  0
   15.2067   35.6137   32.6736 N   0  0  0  0  0  0  0  0  0  0  0  0
   14.6734   36.2279   34.9179 C   0  0  0  0  0  0  0  0  0  0  0  0
   13.8221   37.0456   35.5778 N   0  0  0  0  0  0  0  0  0  0  0  0
   16.1635   34.7589   33.1546 C   0  0  0  0  0  0  0  0  0  0  0  0
   15.6515   35.3496   35.4128 C   0  0  0  0  0  0  0  0  0  0  0  0
   16.3790   34.6311   34.5042 N   0  0  0  0  0  0  0  0  0  0  0  0
   15.9000   35.1936   36.8086 N   0  0  0  0  0  0  0  0  0  0  0  0
    9.8319   44.9963   32.1506 H   0  0  0  0  0  0  0  0  0  0  0  0
   11.1322   46.2534   34.5039 H   0  0  0  0  0  0  0  0  0  0  0  0
   10.8721   46.9309   32.9857 H   0  0  0  0  0  0  0  0  0  0  0  0
    8.4888   46.7222   33.5000 H   0  0  0  0  0  0  0  0  0  0  0  0
    7.7784   45.0872   33.3884 H   0  0  0  0  0  0  0  0  0  0  0  0
    9.4229   47.5109   37.9476 H   0  0  0  0  0  0  0  0  0  0  0  0
    8.2779   46.1718   37.9622 H   0  0  0  0  0  0  0  0  0  0  0  0
    9.0166   44.0716   38.6651 H   0  0  0  0  0  0  0  0  0  0  0  0
   13.7390   45.0327   37.5077 H   0  0  0  0  0  0  0  0  0  0  0  0
   10.7610   42.3979   39.0801 H   0  0  0  0  0  0  0  0  0  0  0  0
   13.1163   42.8698   38.4895 H   0  0  0  0  0  0  0  0  0  0  0  0
   11.4006   41.5439   31.4736 H   0  0  0  0  0  0  0  0  0  0  0  0
    9.8313   40.7402   31.7550 H   0  0  0  0  0  0  0  0  0  0  0  0
   11.6993   39.5046   30.3476 H   0  0  0  0  0  0  0  0  0  0  0  0
   10.1080   38.2637   32.6645 H   0  0  0  0  0  0  0  0  0  0  0  0
   13.6648   37.4528   31.2208 H   0  0  0  0  0  0  0  0  0  0  0  0
    8.8971   38.6911   30.8857 H   0  0  0  0  0  0  0  0  0  0  0  0
   11.2843   36.3058   32.5184 H   0  0  0  0  0  0  0  0  0  0  0  0
   10.8526   35.7098   30.4584 H   0  0  0  0  0  0  0  0  0  0  0  0
   12.3349   38.3584   34.7431 H   0  0  0  0  0  0  0  0  0  0  0  0
   16.7552   34.1760   32.4623 H   0  0  0  0  0  0  0  0  0  0  0  0
   15.3524   35.7353   37.5136 H   0  0  0  0  0  0  0  0  0  0  0  0
   16.6356   34.5311   37.1405 H   0  0  0  0  0  0  0  0  0  0  0  0
  1  2  2  0
  1  3  1  0
  3  4  1  0
  4  5  1  0
  6  1  1  0
  7  6  1  0
  6  8  1  0
  8  9  1  0
  9 10  1  0
  9 11  2  0
 10 12  1  0
 12 13  1  0
 13 14  2  0
 15 13  1  0
 14 16  1  0
 14 17  1  0
 18 15  2  0
 16 19  1  0
 16 20  2  0
 17 21  2  0
 21 18  1  0
  4 22  2  0
  4 23  1  0
 24 23  1  0
 24 25  1  0
 25 26  1  0
 25 27  1  0
 26 28  1  0
 27 29  1  0
 27 30  1  0
 30 28  1  0
 28 31  1  0
 30 32  1  0
 33 31  1  0
 34 31  1  0
 35 33  2  0
 33 36  1  0
 37 34  2  0
 38 35  1  0
 36 39  2  0
 36 37  1  0
 40 38  2  0
 40 39  1  0
 39 41  1  0
  6 42  1  6
  7 43  1  0
  7 44  1  0
  8 45  1  0
  8 46  1  0
 12 47  1  0
 12 48  1  0
 15 49  1  0
 17 50  1  0
 18 51  1  0
 21 52  1  0
 24 53  1  0
 24 54  1  0
 25 55  1  0
 27 56  1  0
 28 57  1  0
 29 58  1  0
 30 59  1  0
 32 60  1  0
 34 61  1  0
 38 62  1  0
 41 63  1  0
 41 64  1  0
M  CHG  3   5  -1  16   1  19  -1
M  END
>  <EmbedRMS>  (571) 
0.08917142839592274

$$$$

     RDKit          3D

 64 67  0  0  0  0  0  0  0  0999 V2000
   10.2854   43.7721   33.8055 C   0  0  0  0  0  0  0  0  0  0  0  0
   11.4122   43.5856   34.3511 O   0  0  0  0  0  0  0  0  0  0  0  0
    9.3660   42.7316   33.7029 O   0  0  0  0  0  0  0  0  0  0  0  0
    9.8850   41.2343   34.2854 P   0  0  0  0  0  5  0  0  0  0  0  0
   10.3652   41.4681   35.8754 O   0  0  0  0  0  1  0  0  0  0  0  0
    9.9604   45.1098   33.2415 C   0  0  2  0  0  0  0  0  0  0  0  0
   11.0651   46.0389   33.4893 N   0  0  0  0  0  0  0  0  0  0  0  0
    8.6122   45.6572   33.7667 C   0  0  0  0  0  0  0  0  0  0  0  0
    8.5960   45.9358   35.2443 C   0  0  0  0  0  0  0  0  0  0  0  0
    9.0569   44.9700   36.1436 O   0  0  0  0  0  0  0  0  0  0  0  0
    8.1223   47.0262   35.6657 O   0  0  0  0  0  0  0  0  0  0  0  0
    8.9392   45.1086   37.5554 C   0  0  0  0  0  0  0  0  0  0  0  0
    9.6792   43.9828   38.2342 C   0  0  0  0  0  0  0  0  0  0  0  0
   11.0857   43.8014   38.0983 C   0  0  0  0  0  0  0  0  0  0  0  0
    8.9351   43.0437   38.9730 C   0  0  0  0  0  0  0  0  0  0  0  0
   11.9140   44.7091   37.3446 N   0  0  0  0  0  4  0  0  0  0  0  0
   11.6888   42.6805   38.6985 C   0  0  0  0  0  0  0  0  0  0  0  0
    9.5585   41.9467   39.5675 C   0  0  0  0  0  0  0  0  0  0  0  0
   13.0918   44.2626   36.7900 O   0  0  0  0  0  1  0  0  0  0  0  0
   11.6733   45.9327   37.3218 O   0  0  0  0  0  0  0  0  0  0  0  0
   10.9318   41.7644   39.4289 C   0  0  0  0  0  0  0  0  0  0  0  0
    8.8079   40.1912   34.2086 O   0  0  0  0  0  0  0  0  0  0  0  0
   11.2377   40.7912   33.3701 O   0  0  0  0  0  0  0  0  0  0  0  0
   10.9184   40.6907   31.9967 C   0  0  0  0  0  0  0  0  0  0  0  0
   11.5173   39.3826   31.4416 C   0  0  0  0  0  0  0  0  0  0  0  0
   12.7493   39.0895   32.0759 O   0  0  0  0  0  0  0  0  0  0  0  0
   10.6035   38.1900   31.6661 C   0  0  0  0  0  0  0  0  0  0  0  0
   12.9400   37.6836   32.0277 C   0  0  0  0  0  0  0  0  0  0  0  0
    9.6376   38.0786   30.6475 O   0  0  0  0  0  0  0  0  0  0  0  0
   11.5803   37.0205   31.6938 C   0  0  0  0  0  0  0  0  0  0  0  0
   13.4901   37.2179   33.3238 N   0  0  0  0  0  0  0  0  0  0  0  0
   11.6118   36.3194   30.4681 O   0  0  0  0  0  0  0  0  0  0  0  0
   14.4758   36.3272   33.5732 C   0  0  0  0  0  0  0  0  0  0  0  0
   13.1176   37.6319   34.5689 C   0  0  0  0  0  0  0  0  0  0  0  0
   15.2063   35.6142   32.6742 N   0  0  0  0  0  0  0  0  0  0  0  0
   14.6729   36.2275   34.9185 C   0  0  0  0  0  0  0  0  0  0  0  0
   13.8222   37.0459   35.5784 N   0  0  0  0  0  0  0  0  0  0  0  0
   16.1636   34.7597   33.1549 C   0  0  0  0  0  0  0  0  0  0  0  0
   15.6513   35.3493   35.4133 C   0  0  0  0  0  0  0  0  0  0  0  0
   16.3790   34.6312   34.5044 N   0  0  0  0  0  0  0  0  0  0  0  0
   15.9001   35.1935   36.8091 N   0  0  0  0  0  0  0  0  0  0  0  0
    9.8630   44.9777   32.1415 H   0  0  0  0  0  0  0  0  0  0  0  0
   11.1397   46.2443   34.5122 H   0  0  0  0  0  0  0  0  0  0  0  0
   10.8556   46.9427   33.0062 H   0  0  0  0  0  0  0  0  0  0  0  0
    8.3721   46.5927   33.2152 H   0  0  0  0  0  0  0  0  0  0  0  0
    7.8017   44.9326   33.5371 H   0  0  0  0  0  0  0  0  0  0  0  0
    9.3392   46.0871   37.8924 H   0  0  0  0  0  0  0  0  0  0  0  0
    7.8604   45.0992   37.8245 H   0  0  0  0  0  0  0  0  0  0  0  0
    7.8631   43.1525   39.0831 H   0  0  0  0  0  0  0  0  0  0  0  0
   12.7553   42.5180   38.6095 H   0  0  0  0  0  0  0  0  0  0  0  0
    8.9731   41.2321   40.1316 H   0  0  0  0  0  0  0  0  0  0  0  0
   11.4122   40.9099   39.8877 H   0  0  0  0  0  0  0  0  0  0  0  0
    9.8304   40.7397   31.7568 H   0  0  0  0  0  0  0  0  0  0  0  0
   11.3990   41.5457   31.4749 H   0  0  0  0  0  0  0  0  0  0  0  0
   11.6987   39.5095   30.3493 H   0  0  0  0  0  0  0  0  0  0  0  0
   10.1129   38.2588   32.6665 H   0  0  0  0  0  0  0  0  0  0  0  0
   13.6800   37.4631   31.2267 H   0  0  0  0  0  0  0  0  0  0  0  0
    8.8952   38.6909   30.8892 H   0  0  0  0  0  0  0  0  0  0  0  0
   11.2831   36.3061   32.4930 H   0  0  0  0  0  0  0  0  0  0  0  0
   11.8859   36.9591   29.7594 H   0  0  0  0  0  0  0  0  0  0  0  0
   12.3362   38.3603   34.7443 H   0  0  0  0  0  0  0  0  0  0  0  0
   16.7572   34.1794   32.4621 H   0  0  0  0  0  0  0  0  0  0  0  0
   16.6362   34.5318   37.1416 H   0  0  0  0  0  0  0  0  0  0  0  0
   15.3528   35.7357   37.5140 H   0  0  0  0  0  0  0  0  0  0  0  0
  1  2  2  0
  1  3  1  0
  3  4  1  0
  4  5  1  0
  6  1  1  0
  7  6  1  0
  6  8  1  0
  8  9  1  0
  9 10  1  0
  9 11  2  0
 10 12  1  0
 12 13  1  0
 13 14  2  0
 15 13  1  0
 14 16  1  0
 14 17  1  0
 18 15  2  0
 16 19  1  0
 16 20  2  0
 17 21  2  0
 21 18  1  0
  4 22  2  0
  4 23  1  0
 24 23  1  0
 24 25  1  0
 25 26  1  0
 25 27  1  0
 26 28  1  0
 27 29  1  0
 27 30  1  0
 30 28  1  0
 28 31  1  0
 30 32  1  0
 33 31  1  0
 34 31  1  0
 35 33  2  0
 33 36  1  0
 37 34  2  0
 38 35  1  0
 36 39  2  0
 36 37  1  0
 40 38  2  0
 40 39  1  0
 39 41  1  0
  6 42  1  6
  7 43  1  0
  7 44  1  0
  8 45  1  0
  8 46  1  0
 12 47  1  0
 12 48  1  0
 15 49  1  0
 17 50  1  0
 18 51  1  0
 21 52  1  0
 24 53  1  0
 24 54  1  0
 25 55  1  0
 27 56  1  0
 28 57  1  0
 29 58  1  0
 30 59  1  0
 32 60  1  0
 34 61  1  0
 38 62  1  0
 41 63  1  0
 41 64  1  0
M  CHG  3   5  -1  16   1  19  -1
M  END
>  <EmbedRMS>  (572) 
0.08826099930358307

$$$$

     RDKit          3D

 64 67  0  0  0  0  0  0  0  0999 V2000
   10.2863   43.7709   33.8103 C   0  0  0  0  0  0  0  0  0  0  0  0
   11.4101   43.5817   34.3618 O   0  0  0  0  0  0  0  0  0  0  0  0
    9.3667   42.7309   33.7025 O   0  0  0  0  0  0  0  0  0  0  0  0
    9.8846   41.2330   34.2846 P   0  0  0  0  0  5  0  0  0  0  0  0
   10.3648   41.4676   35.8753 O   0  0  0  0  0  1  0  0  0  0  0  0
    9.9618   45.1113   33.2460 C   0  0  2  0  0  0  0  0  0  0  0  0
   11.0649   46.0484   33.4751 N   0  0  0  0  0  0  0  0  0  0  0  0
    8.6625   45.6558   33.8627 C   0  0  0  0  0  0  0  0  0  0  0  0
    8.3031   46.9814   33.2674 C   0  0  0  0  0  0  0  0  0  0  0  0
    7.8991   47.0456   31.9294 O   0  0  0  0  0  0  0  0  0  0  0  0
    8.4007   48.0294   33.9627 O   0  0  0  0  0  0  0  0  0  0  0  0
    7.6930   48.2741   31.2352 C   0  0  0  0  0  0  0  0  0  0  0  0
    9.0027   49.0040   31.0383 C   0  0  0  0  0  0  0  0  0  0  0  0
   10.1388   48.3814   30.4523 C   0  0  0  0  0  0  0  0  0  0  0  0
    9.1068   50.3304   31.4968 C   0  0  0  0  0  0  0  0  0  0  0  0
   10.0928   47.0350   29.9434 N   0  0  0  0  0  4  0  0  0  0  0  0
   11.3485   49.0972   30.3795 C   0  0  0  0  0  0  0  0  0  0  0  0
   10.3122   51.0261   31.3993 C   0  0  0  0  0  0  0  0  0  0  0  0
    8.9819   46.5718   29.2781 O   0  0  0  0  0  1  0  0  0  0  0  0
   11.1206   46.3261   29.9562 O   0  0  0  0  0  0  0  0  0  0  0  0
   11.4321   50.4090   30.8469 C   0  0  0  0  0  0  0  0  0  0  0  0
    8.8073   40.1902   34.2075 O   0  0  0  0  0  0  0  0  0  0  0  0
   11.2376   40.7905   33.3696 O   0  0  0  0  0  0  0  0  0  0  0  0
   10.9186   40.6906   31.9960 C   0  0  0  0  0  0  0  0  0  0  0  0
   11.5174   39.3824   31.4411 C   0  0  0  0  0  0  0  0  0  0  0  0
   12.7494   39.0893   32.0756 O   0  0  0  0  0  0  0  0  0  0  0  0
   10.6036   38.1900   31.6659 C   0  0  0  0  0  0  0  0  0  0  0  0
   12.9400   37.6834   32.0276 C   0  0  0  0  0  0  0  0  0  0  0  0
    9.6376   38.0785   30.6474 O   0  0  0  0  0  0  0  0  0  0  0  0
   11.5803   37.0204   31.6937 C   0  0  0  0  0  0  0  0  0  0  0  0
   13.4902   37.2178   33.3237 N   0  0  0  0  0  0  0  0  0  0  0  0
   11.6118   36.3193   30.4680 O   0  0  0  0  0  0  0  0  0  0  0  0
   14.4759   36.3272   33.5731 C   0  0  0  0  0  0  0  0  0  0  0  0
   13.1176   37.6318   34.5688 C   0  0  0  0  0  0  0  0  0  0  0  0
   15.2064   35.6142   32.6742 N   0  0  0  0  0  0  0  0  0  0  0  0
   14.6729   36.2274   34.9184 C   0  0  0  0  0  0  0  0  0  0  0  0
   13.8221   37.0458   35.5783 N   0  0  0  0  0  0  0  0  0  0  0  0
   16.1637   34.7597   33.1549 C   0  0  0  0  0  0  0  0  0  0  0  0
   15.6514   35.3493   35.4132 C   0  0  0  0  0  0  0  0  0  0  0  0
   16.3791   34.6312   34.5043 N   0  0  0  0  0  0  0  0  0  0  0  0
   15.9001   35.1935   36.8091 N   0  0  0  0  0  0  0  0  0  0  0  0
    9.8152   44.9911   32.1499 H   0  0  0  0  0  0  0  0  0  0  0  0
   11.2738   46.1184   34.4986 H   0  0  0  0  0  0  0  0  0  0  0  0
   11.9220   45.7053   32.9822 H   0  0  0  0  0  0  0  0  0  0  0  0
    8.7757   45.7537   34.9655 H   0  0  0  0  0  0  0  0  0  0  0  0
    7.8268   44.9496   33.6665 H   0  0  0  0  0  0  0  0  0  0  0  0
    7.2347   48.0667   30.2469 H   0  0  0  0  0  0  0  0  0  0  0  0
    6.9593   48.8913   31.7991 H   0  0  0  0  0  0  0  0  0  0  0  0
    8.2552   50.8268   31.9453 H   0  0  0  0  0  0  0  0  0  0  0  0
   12.2287   48.6422   29.9428 H   0  0  0  0  0  0  0  0  0  0  0  0
   10.3795   52.0443   31.7603 H   0  0  0  0  0  0  0  0  0  0  0  0
   12.3672   50.9495   30.7769 H   0  0  0  0  0  0  0  0  0  0  0  0
   11.3996   41.5456   31.4746 H   0  0  0  0  0  0  0  0  0  0  0  0
    9.8308   40.7399   31.7558 H   0  0  0  0  0  0  0  0  0  0  0  0
   11.6989   39.5092   30.3489 H   0  0  0  0  0  0  0  0  0  0  0  0
   10.1130   38.2589   32.6663 H   0  0  0  0  0  0  0  0  0  0  0  0
   13.6800   37.4628   31.2265 H   0  0  0  0  0  0  0  0  0  0  0  0
    8.8953   38.6910   30.8890 H   0  0  0  0  0  0  0  0  0  0  0  0
   11.2830   36.3060   32.4929 H   0  0  0  0  0  0  0  0  0  0  0  0
   11.8859   36.9589   29.7593 H   0  0  0  0  0  0  0  0  0  0  0  0
   12.3360   38.3600   34.7441 H   0  0  0  0  0  0  0  0  0  0  0  0
   16.7572   34.1793   32.4621 H   0  0  0  0  0  0  0  0  0  0  0  0
   16.6362   34.5318   37.1415 H   0  0  0  0  0  0  0  0  0  0  0  0
   15.3528   35.7357   37.5140 H   0  0  0  0  0  0  0  0  0  0  0  0
  1  2  2  0
  1  3  1  0
  3  4  1  0
  4  5  1  0
  6  1  1  0
  7  6  1  0
  6  8  1  0
  8  9  1  0
  9 10  1  0
  9 11  2  0
 10 12  1  0
 12 13  1  0
 13 14  2  0
 15 13  1  0
 14 16  1  0
 14 17  1  0
 18 15  2  0
 16 19  1  0
 16 20  2  0
 17 21  2  0
 21 18  1  0
  4 22  2  0
  4 23  1  0
 24 23  1  0
 24 25  1  0
 25 26  1  0
 25 27  1  0
 26 28  1  0
 27 29  1  0
 27 30  1  0
 30 28  1  0
 28 31  1  0
 30 32  1  0
 33 31  1  0
 34 31  1  0
 35 33  2  0
 33 36  1  0
 37 34  2  0
 38 35  1  0
 36 39  2  0
 36 37  1  0
 40 38  2  0
 40 39  1  0
 39 41  1  0
  6 42  1  6
  7 43  1  0
  7 44  1  0
  8 45  1  0
  8 46  1  0
 12 47  1  0
 12 48  1  0
 15 49  1  0
 17 50  1  0
 18 51  1  0
 21 52  1  0
 24 53  1  0
 24 54  1  0
 25 55  1  0
 27 56  1  0
 28 57  1  0
 29 58  1  0
 30 59  1  0
 32 60  1  0
 34 61  1  0
 38 62  1  0
 41 63  1  0
 41 64  1  0
M  CHG  3   5  -1  16   1  19  -1
M  END
>  <EmbedRMS>  (573) 
0.08879983847549272

$$$$

     RDKit          3D

 64 67  0  0  0  0  0  0  0  0999 V2000
   10.2881   43.7703   33.7984 C   0  0  0  0  0  0  0  0  0  0  0  0
   11.4092   43.5873   34.3579 O   0  0  0  0  0  0  0  0  0  0  0  0
    9.3677   42.7303   33.6975 O   0  0  0  0  0  0  0  0  0  0  0  0
    9.8851   41.2343   34.2850 P   0  0  0  0  0  5  0  0  0  0  0  0
   10.3685   41.4707   35.8743 O   0  0  0  0  0  1  0  0  0  0  0  0
    9.9559   45.1144   33.2463 C   0  0  2  0  0  0  0  0  0  0  0  0
   11.0667   46.0366   33.4889 N   0  0  0  0  0  0  0  0  0  0  0  0
    8.6499   45.6613   33.8599 C   0  0  0  0  0  0  0  0  0  0  0  0
    8.7176   45.7518   35.3553 C   0  0  0  0  0  0  0  0  0  0  0  0
    8.4860   44.6020   36.1139 O   0  0  0  0  0  0  0  0  0  0  0  0
    9.0237   46.8421   35.9104 O   0  0  0  0  0  0  0  0  0  0  0  0
    8.6038   44.5657   37.5327 C   0  0  0  0  0  0  0  0  0  0  0  0
    8.3829   43.1610   38.0481 C   0  0  0  0  0  0  0  0  0  0  0  0
    8.9972   42.7016   39.2443 C   0  0  0  0  0  0  0  0  0  0  0  0
    7.5411   42.2846   37.3333 C   0  0  0  0  0  0  0  0  0  0  0  0
    9.7833   43.5716   40.0774 N   0  0  0  0  0  4  0  0  0  0  0  0
    8.8268   41.3613   39.6332 C   0  0  0  0  0  0  0  0  0  0  0  0
    7.3715   40.9630   37.7469 C   0  0  0  0  0  0  0  0  0  0  0  0
   10.8272   43.0593   40.8131 O   0  0  0  0  0  1  0  0  0  0  0  0
    9.4129   44.7435   40.2956 O   0  0  0  0  0  0  0  0  0  0  0  0
    8.0229   40.4988   38.8873 C   0  0  0  0  0  0  0  0  0  0  0  0
    8.8070   40.1918   34.2114 O   0  0  0  0  0  0  0  0  0  0  0  0
   11.2364   40.7885   33.3691 O   0  0  0  0  0  0  0  0  0  0  0  0
   10.9155   40.6886   31.9958 C   0  0  0  0  0  0  0  0  0  0  0  0
   11.5249   39.3873   31.4366 C   0  0  0  0  0  0  0  0  0  0  0  0
   12.7485   39.0880   32.0803 O   0  0  0  0  0  0  0  0  0  0  0  0
   10.6099   38.1908   31.6471 C   0  0  0  0  0  0  0  0  0  0  0  0
   12.9347   37.6808   32.0292 C   0  0  0  0  0  0  0  0  0  0  0  0
    9.6126   38.0873   30.6547 O   0  0  0  0  0  0  0  0  0  0  0  0
   11.5766   37.0133   31.7026 C   0  0  0  0  0  0  0  0  0  0  0  0
   13.4901   37.2166   33.3237 N   0  0  0  0  0  0  0  0  0  0  0  0
   11.6321   36.3231   30.4741 O   0  0  0  0  0  0  0  0  0  0  0  0
   14.4762   36.3266   33.5728 C   0  0  0  0  0  0  0  0  0  0  0  0
   13.1179   37.6307   34.5689 C   0  0  0  0  0  0  0  0  0  0  0  0
   15.2065   35.6136   32.6739 N   0  0  0  0  0  0  0  0  0  0  0  0
   14.6735   36.2272   34.9182 C   0  0  0  0  0  0  0  0  0  0  0  0
   13.8228   37.0453   35.5784 N   0  0  0  0  0  0  0  0  0  0  0  0
   16.1639   34.7593   33.1547 C   0  0  0  0  0  0  0  0  0  0  0  0
   15.6518   35.3491   35.4131 C   0  0  0  0  0  0  0  0  0  0  0  0
   16.3794   34.6309   34.5042 N   0  0  0  0  0  0  0  0  0  0  0  0
   15.9004   35.1933   36.8089 N   0  0  0  0  0  0  0  0  0  0  0  0
    9.8051   45.0078   32.1484 H   0  0  0  0  0  0  0  0  0  0  0  0
   10.8088   46.9747   33.1045 H   0  0  0  0  0  0  0  0  0  0  0  0
   11.8887   45.7202   32.9233 H   0  0  0  0  0  0  0  0  0  0  0  0
    7.8034   44.9973   33.5800 H   0  0  0  0  0  0  0  0  0  0  0  0
    8.4272   46.6641   33.4345 H   0  0  0  0  0  0  0  0  0  0  0  0
    9.6247   44.9129   37.8002 H   0  0  0  0  0  0  0  0  0  0  0  0
    7.8512   45.2448   37.9873 H   0  0  0  0  0  0  0  0  0  0  0  0
    7.0270   42.6147   36.4394 H   0  0  0  0  0  0  0  0  0  0  0  0
    9.2981   40.9885   40.5337 H   0  0  0  0  0  0  0  0  0  0  0  0
    6.7373   40.2956   37.1777 H   0  0  0  0  0  0  0  0  0  0  0  0
    7.8925   39.4719   39.2035 H   0  0  0  0  0  0  0  0  0  0  0  0
    9.8255   40.7199   31.7585 H   0  0  0  0  0  0  0  0  0  0  0  0
   11.3842   41.5507   31.4747 H   0  0  0  0  0  0  0  0  0  0  0  0
   11.7269   39.5290   30.3503 H   0  0  0  0  0  0  0  0  0  0  0  0
   10.1121   38.2730   32.6391 H   0  0  0  0  0  0  0  0  0  0  0  0
   13.6685   37.4592   31.2225 H   0  0  0  0  0  0  0  0  0  0  0  0
   10.0514   38.1110   29.7648 H   0  0  0  0  0  0  0  0  0  0  0  0
   11.2802   36.3128   32.5195 H   0  0  0  0  0  0  0  0  0  0  0  0
   10.8625   35.6960   30.4646 H   0  0  0  0  0  0  0  0  0  0  0  0
   12.3355   38.3581   34.7446 H   0  0  0  0  0  0  0  0  0  0  0  0
   16.7574   34.1788   32.4619 H   0  0  0  0  0  0  0  0  0  0  0  0
   16.6363   34.5315   37.1415 H   0  0  0  0  0  0  0  0  0  0  0  0
   15.3531   35.7356   37.5138 H   0  0  0  0  0  0  0  0  0  0  0  0
  1  2  2  0
  1  3  1  0
  3  4  1  0
  4  5  1  0
  6  1  1  0
  7  6  1  0
  6  8  1  0
  8  9  1  0
  9 10  1  0
  9 11  2  0
 10 12  1  0
 12 13  1  0
 13 14  2  0
 15 13  1  0
 14 16  1  0
 14 17  1  0
 18 15  2  0
 16 19  1  0
 16 20  2  0
 17 21  2  0
 21 18  1  0
  4 22  2  0
  4 23  1  0
 24 23  1  0
 24 25  1  0
 25 26  1  0
 25 27  1  0
 26 28  1  0
 27 29  1  0
 27 30  1  0
 30 28  1  0
 28 31  1  0
 30 32  1  0
 33 31  1  0
 34 31  1  0
 35 33  2  0
 33 36  1  0
 37 34  2  0
 38 35  1  0
 36 39  2  0
 36 37  1  0
 40 38  2  0
 40 39  1  0
 39 41  1  0
  6 42  1  6
  7 43  1  0
  7 44  1  0
  8 45  1  0
  8 46  1  0
 12 47  1  0
 12 48  1  0
 15 49  1  0
 17 50  1  0
 18 51  1  0
 21 52  1  0
 24 53  1  0
 24 54  1  0
 25 55  1  0
 27 56  1  0
 28 57  1  0
 29 58  1  0
 30 59  1  0
 32 60  1  0
 34 61  1  0
 38 62  1  0
 41 63  1  0
 41 64  1  0
M  CHG  3   5  -1  16   1  19  -1
M  END
>  <EmbedRMS>  (574) 
0.08807477190769732

$$$$

     RDKit          3D

 64 67  0  0  0  0  0  0  0  0999 V2000
   10.2862   43.7718   33.8043 C   0  0  0  0  0  0  0  0  0  0  0  0
   11.4087   43.5882   34.3607 O   0  0  0  0  0  0  0  0  0  0  0  0
    9.3674   42.7309   33.6991 O   0  0  0  0  0  0  0  0  0  0  0  0
    9.8854   41.2342   34.2840 P   0  0  0  0  0  5  0  0  0  0  0  0
   10.3658   41.4703   35.8744 O   0  0  0  0  0  1  0  0  0  0  0  0
    9.9532   45.1148   33.2532 C   0  0  2  0  0  0  0  0  0  0  0  0
   11.0710   46.0330   33.4772 N   0  0  0  0  0  0  0  0  0  0  0  0
    8.6594   45.6659   33.8869 C   0  0  0  0  0  0  0  0  0  0  0  0
    8.7675   45.8124   35.3765 C   0  0  0  0  0  0  0  0  0  0  0  0
    9.4917   46.8801   35.9132 O   0  0  0  0  0  0  0  0  0  0  0  0
    8.2311   44.9553   36.1309 O   0  0  0  0  0  0  0  0  0  0  0  0
    9.6442   47.0775   37.3154 C   0  0  0  0  0  0  0  0  0  0  0  0
   10.5546   48.2531   37.5687 C   0  0  0  0  0  0  0  0  0  0  0  0
   11.8708   48.3207   37.0350 C   0  0  0  0  0  0  0  0  0  0  0  0
   10.0657   49.3326   38.3283 C   0  0  0  0  0  0  0  0  0  0  0  0
   12.4370   47.2452   36.2624 N   0  0  0  0  0  4  0  0  0  0  0  0
   12.6392   49.4792   37.2557 C   0  0  0  0  0  0  0  0  0  0  0  0
   10.8513   50.4647   38.5469 C   0  0  0  0  0  0  0  0  0  0  0  0
   12.2144   45.9338   36.6116 O   0  0  0  0  0  1  0  0  0  0  0  0
   13.2708   47.4915   35.3663 O   0  0  0  0  0  0  0  0  0  0  0  0
   12.1335   50.5397   38.0081 C   0  0  0  0  0  0  0  0  0  0  0  0
    8.8078   40.1914   34.2086 O   0  0  0  0  0  0  0  0  0  0  0  0
   11.2372   40.7897   33.3684 O   0  0  0  0  0  0  0  0  0  0  0  0
   10.9162   40.6889   31.9952 C   0  0  0  0  0  0  0  0  0  0  0  0
   11.5252   39.3872   31.4364 C   0  0  0  0  0  0  0  0  0  0  0  0
   12.7487   39.0879   32.0803 O   0  0  0  0  0  0  0  0  0  0  0  0
   10.6101   38.1909   31.6471 C   0  0  0  0  0  0  0  0  0  0  0  0
   12.9348   37.6807   32.0292 C   0  0  0  0  0  0  0  0  0  0  0  0
    9.6126   38.0874   30.6547 O   0  0  0  0  0  0  0  0  0  0  0  0
   11.5767   37.0133   31.7026 C   0  0  0  0  0  0  0  0  0  0  0  0
   13.4901   37.2165   33.3236 N   0  0  0  0  0  0  0  0  0  0  0  0
   11.6321   36.3231   30.4741 O   0  0  0  0  0  0  0  0  0  0  0  0
   14.4763   36.3266   33.5728 C   0  0  0  0  0  0  0  0  0  0  0  0
   13.1179   37.6307   34.5689 C   0  0  0  0  0  0  0  0  0  0  0  0
   15.2065   35.6135   32.6739 N   0  0  0  0  0  0  0  0  0  0  0  0
   14.6736   36.2272   34.9182 C   0  0  0  0  0  0  0  0  0  0  0  0
   13.8228   37.0453   35.5783 N   0  0  0  0  0  0  0  0  0  0  0  0
   16.1640   34.7592   33.1547 C   0  0  0  0  0  0  0  0  0  0  0  0
   15.6519   35.3491   35.4131 C   0  0  0  0  0  0  0  0  0  0  0  0
   16.3795   34.6309   34.5042 N   0  0  0  0  0  0  0  0  0  0  0  0
   15.9005   35.1933   36.8089 N   0  0  0  0  0  0  0  0  0  0  0  0
    9.7851   45.0061   32.1581 H   0  0  0  0  0  0  0  0  0  0  0  0
   11.8839   45.7120   32.9013 H   0  0  0  0  0  0  0  0  0  0  0  0
   10.8115   46.9719   33.0960 H   0  0  0  0  0  0  0  0  0  0  0  0
    7.8079   44.9947   33.6384 H   0  0  0  0  0  0  0  0  0  0  0  0
    8.4251   46.6588   33.4464 H   0  0  0  0  0  0  0  0  0  0  0  0
    8.6399   47.2456   37.7625 H   0  0  0  0  0  0  0  0  0  0  0  0
   10.0655   46.1684   37.7935 H   0  0  0  0  0  0  0  0  0  0  0  0
    9.0674   49.3049   38.7475 H   0  0  0  0  0  0  0  0  0  0  0  0
   13.6426   49.5551   36.8561 H   0  0  0  0  0  0  0  0  0  0  0  0
   10.4618   51.2887   39.1308 H   0  0  0  0  0  0  0  0  0  0  0  0
   12.7393   51.4209   38.1761 H   0  0  0  0  0  0  0  0  0  0  0  0
   11.3850   41.5506   31.4736 H   0  0  0  0  0  0  0  0  0  0  0  0
    9.8262   40.7205   31.7577 H   0  0  0  0  0  0  0  0  0  0  0  0
   11.7273   39.5287   30.3502 H   0  0  0  0  0  0  0  0  0  0  0  0
   10.1123   38.2732   32.6390 H   0  0  0  0  0  0  0  0  0  0  0  0
   13.6685   37.4590   31.2224 H   0  0  0  0  0  0  0  0  0  0  0  0
   10.0514   38.1110   29.7648 H   0  0  0  0  0  0  0  0  0  0  0  0
   11.2801   36.3129   32.5195 H   0  0  0  0  0  0  0  0  0  0  0  0
   10.8624   35.6960   30.4646 H   0  0  0  0  0  0  0  0  0  0  0  0
   12.3356   38.3581   34.7445 H   0  0  0  0  0  0  0  0  0  0  0  0
   16.7575   34.1787   32.4620 H   0  0  0  0  0  0  0  0  0  0  0  0
   15.3532   35.7356   37.5138 H   0  0  0  0  0  0  0  0  0  0  0  0
   16.6364   34.5315   37.1415 H   0  0  0  0  0  0  0  0  0  0  0  0
  1  2  2  0
  1  3  1  0
  3  4  1  0
  4  5  1  0
  6  1  1  0
  7  6  1  0
  6  8  1  0
  8  9  1  0
  9 10  1  0
  9 11  2  0
 10 12  1  0
 12 13  1  0
 13 14  2  0
 15 13  1  0
 14 16  1  0
 14 17  1  0
 18 15  2  0
 16 19  1  0
 16 20  2  0
 17 21  2  0
 21 18  1  0
  4 22  2  0
  4 23  1  0
 24 23  1  0
 24 25  1  0
 25 26  1  0
 25 27  1  0
 26 28  1  0
 27 29  1  0
 27 30  1  0
 30 28  1  0
 28 31  1  0
 30 32  1  0
 33 31  1  0
 34 31  1  0
 35 33  2  0
 33 36  1  0
 37 34  2  0
 38 35  1  0
 36 39  2  0
 36 37  1  0
 40 38  2  0
 40 39  1  0
 39 41  1  0
  6 42  1  6
  7 43  1  0
  7 44  1  0
  8 45  1  0
  8 46  1  0
 12 47  1  0
 12 48  1  0
 15 49  1  0
 17 50  1  0
 18 51  1  0
 21 52  1  0
 24 53  1  0
 24 54  1  0
 25 55  1  0
 27 56  1  0
 28 57  1  0
 29 58  1  0
 30 59  1  0
 32 60  1  0
 34 61  1  0
 38 62  1  0
 41 63  1  0
 41 64  1  0
M  CHG  3   5  -1  16   1  19  -1
M  END
>  <EmbedRMS>  (575) 
0.08810724271550713

$$$$

     RDKit          3D

 64 67  0  0  0  0  0  0  0  0999 V2000
   10.2829   43.7755   33.8075 C   0  0  0  0  0  0  0  0  0  0  0  0
   11.4085   43.5915   34.3577 O   0  0  0  0  0  0  0  0  0  0  0  0
    9.3669   42.7317   33.7011 O   0  0  0  0  0  0  0  0  0  0  0  0
    9.8864   41.2345   34.2838 P   0  0  0  0  0  5  0  0  0  0  0  0
   10.3667   41.4694   35.8744 O   0  0  0  0  0  1  0  0  0  0  0  0
    9.9533   45.1117   33.2434 C   0  0  2  0  0  0  0  0  0  0  0  0
   11.0726   46.0267   33.4849 N   0  0  0  0  0  0  0  0  0  0  0  0
    8.6396   45.6437   33.8545 C   0  0  0  0  0  0  0  0  0  0  0  0
    8.2264   46.9368   33.2240 C   0  0  0  0  0  0  0  0  0  0  0  0
    8.6040   48.1427   33.8204 O   0  0  0  0  0  0  0  0  0  0  0  0
    7.5771   46.9283   32.1425 O   0  0  0  0  0  0  0  0  0  0  0  0
    8.2862   49.4110   33.2586 C   0  0  0  0  0  0  0  0  0  0  0  0
    8.8434   50.4998   34.1375 C   0  0  0  0  0  0  0  0  0  0  0  0
    8.1413   50.9964   35.2690 C   0  0  0  0  0  0  0  0  0  0  0  0
   10.1074   51.0315   33.8246 C   0  0  0  0  0  0  0  0  0  0  0  0
    6.8705   50.4578   35.6770 N   0  0  0  0  0  4  0  0  0  0  0  0
    8.7019   52.0507   36.0120 C   0  0  0  0  0  0  0  0  0  0  0  0
   10.6533   52.0652   34.5865 C   0  0  0  0  0  0  0  0  0  0  0  0
    5.9597   51.2620   36.3229 O   0  0  0  0  0  1  0  0  0  0  0  0
    6.6499   49.2308   35.6176 O   0  0  0  0  0  0  0  0  0  0  0  0
    9.9484   52.5792   35.6731 C   0  0  0  0  0  0  0  0  0  0  0  0
    8.8090   40.1914   34.2078 O   0  0  0  0  0  0  0  0  0  0  0  0
   11.2387   40.7910   33.3680 O   0  0  0  0  0  0  0  0  0  0  0  0
   10.9187   40.6889   31.9945 C   0  0  0  0  0  0  0  0  0  0  0  0
   11.5180   39.3800   31.4398 C   0  0  0  0  0  0  0  0  0  0  0  0
   12.7483   39.0876   32.0750 O   0  0  0  0  0  0  0  0  0  0  0  0
   10.6053   38.1875   31.6656 C   0  0  0  0  0  0  0  0  0  0  0  0
   12.9361   37.6816   32.0288 C   0  0  0  0  0  0  0  0  0  0  0  0
    9.6423   38.0738   30.6445 O   0  0  0  0  0  0  0  0  0  0  0  0
   11.5765   37.0158   31.7046 C   0  0  0  0  0  0  0  0  0  0  0  0
   13.4908   37.2183   33.3237 N   0  0  0  0  0  0  0  0  0  0  0  0
   11.6102   36.3399   30.4680 O   0  0  0  0  0  0  0  0  0  0  0  0
   14.4762   36.3273   33.5728 C   0  0  0  0  0  0  0  0  0  0  0  0
   13.1181   37.6318   34.5689 C   0  0  0  0  0  0  0  0  0  0  0  0
   15.2063   35.6141   32.6739 N   0  0  0  0  0  0  0  0  0  0  0  0
   14.6733   36.2275   34.9182 C   0  0  0  0  0  0  0  0  0  0  0  0
   13.8226   37.0457   35.5783 N   0  0  0  0  0  0  0  0  0  0  0  0
   16.1635   34.7595   33.1546 C   0  0  0  0  0  0  0  0  0  0  0  0
   15.6515   35.3492   35.4130 C   0  0  0  0  0  0  0  0  0  0  0  0
   16.3791   34.6310   34.5041 N   0  0  0  0  0  0  0  0  0  0  0  0
   15.9002   35.1933   36.8089 N   0  0  0  0  0  0  0  0  0  0  0  0
    9.8202   44.9855   32.1457 H   0  0  0  0  0  0  0  0  0  0  0  0
   11.0747   46.3289   34.4871 H   0  0  0  0  0  0  0  0  0  0  0  0
   10.9460   46.8826   32.8975 H   0  0  0  0  0  0  0  0  0  0  0  0
    7.8247   44.9024   33.7019 H   0  0  0  0  0  0  0  0  0  0  0  0
    8.7576   45.7899   34.9506 H   0  0  0  0  0  0  0  0  0  0  0  0
    7.1857   49.5212   33.1521 H   0  0  0  0  0  0  0  0  0  0  0  0
    8.7191   49.4799   32.2362 H   0  0  0  0  0  0  0  0  0  0  0  0
   10.6694   50.6514   32.9801 H   0  0  0  0  0  0  0  0  0  0  0  0
    8.1815   52.4514   36.8726 H   0  0  0  0  0  0  0  0  0  0  0  0
   11.6235   52.4714   34.3308 H   0  0  0  0  0  0  0  0  0  0  0  0
   10.3725   53.3835   36.2604 H   0  0  0  0  0  0  0  0  0  0  0  0
   11.3986   41.5435   31.4715 H   0  0  0  0  0  0  0  0  0  0  0  0
    9.8305   40.7372   31.7553 H   0  0  0  0  0  0  0  0  0  0  0  0
   11.7002   39.5044   30.3473 H   0  0  0  0  0  0  0  0  0  0  0  0
   10.1104   38.2619   32.6637 H   0  0  0  0  0  0  0  0  0  0  0  0
   13.6696   37.4587   31.2222 H   0  0  0  0  0  0  0  0  0  0  0  0
    8.8999   38.6881   30.8814 H   0  0  0  0  0  0  0  0  0  0  0  0
   11.2690   36.3069   32.5091 H   0  0  0  0  0  0  0  0  0  0  0  0
   12.1427   35.5151   30.6153 H   0  0  0  0  0  0  0  0  0  0  0  0
   12.3359   38.3593   34.7445 H   0  0  0  0  0  0  0  0  0  0  0  0
   16.7569   34.1789   32.4618 H   0  0  0  0  0  0  0  0  0  0  0  0
   15.3530   35.7356   37.5138 H   0  0  0  0  0  0  0  0  0  0  0  0
   16.6362   34.5315   37.1413 H   0  0  0  0  0  0  0  0  0  0  0  0
  1  2  2  0
  1  3  1  0
  3  4  1  0
  4  5  1  0
  6  1  1  0
  7  6  1  0
  6  8  1  0
  8  9  1  0
  9 10  1  0
  9 11  2  0
 10 12  1  0
 12 13  1  0
 13 14  2  0
 15 13  1  0
 14 16  1  0
 14 17  1  0
 18 15  2  0
 16 19  1  0
 16 20  2  0
 17 21  2  0
 21 18  1  0
  4 22  2  0
  4 23  1  0
 24 23  1  0
 24 25  1  0
 25 26  1  0
 25 27  1  0
 26 28  1  0
 27 29  1  0
 27 30  1  0
 30 28  1  0
 28 31  1  0
 30 32  1  0
 33 31  1  0
 34 31  1  0
 35 33  2  0
 33 36  1  0
 37 34  2  0
 38 35  1  0
 36 39  2  0
 36 37  1  0
 40 38  2  0
 40 39  1  0
 39 41  1  0
  6 42  1  6
  7 43  1  0
  7 44  1  0
  8 45  1  0
  8 46  1  0
 12 47  1  0
 12 48  1  0
 15 49  1  0
 17 50  1  0
 18 51  1  0
 21 52  1  0
 24 53  1  0
 24 54  1  0
 25 55  1  0
 27 56  1  0
 28 57  1  0
 29 58  1  0
 30 59  1  0
 32 60  1  0
 34 61  1  0
 38 62  1  0
 41 63  1  0
 41 64  1  0
M  CHG  3   5  -1  16   1  19  -1
M  END
>  <EmbedRMS>  (576) 
0.08903945629602367

$$$$

     RDKit          3D

 64 67  0  0  0  0  0  0  0  0999 V2000
   10.2830   43.7754   33.8076 C   0  0  0  0  0  0  0  0  0  0  0  0
   11.4087   43.5913   34.3577 O   0  0  0  0  0  0  0  0  0  0  0  0
    9.3669   42.7317   33.7011 O   0  0  0  0  0  0  0  0  0  0  0  0
    9.8864   41.2344   34.2838 P   0  0  0  0  0  5  0  0  0  0  0  0
   10.3665   41.4694   35.8744 O   0  0  0  0  0  1  0  0  0  0  0  0
    9.9536   45.1116   33.2435 C   0  0  2  0  0  0  0  0  0  0  0  0
   11.0724   46.0269   33.4848 N   0  0  0  0  0  0  0  0  0  0  0  0
    8.6407   45.6444   33.8547 C   0  0  0  0  0  0  0  0  0  0  0  0
    8.2204   46.9300   33.2132 C   0  0  0  0  0  0  0  0  0  0  0  0
    7.6725   46.9071   31.9246 O   0  0  0  0  0  0  0  0  0  0  0  0
    8.3796   48.0194   33.8287 O   0  0  0  0  0  0  0  0  0  0  0  0
    7.2648   48.0809   31.2198 C   0  0  0  0  0  0  0  0  0  0  0  0
    5.8081   48.4352   31.4550 C   0  0  0  0  0  0  0  0  0  0  0  0
    5.1339   49.3395   30.5887 C   0  0  0  0  0  0  0  0  0  0  0  0
    5.0933   47.8637   32.5295 C   0  0  0  0  0  0  0  0  0  0  0  0
    5.8083   49.9843   29.4922 N   0  0  0  0  0  4  0  0  0  0  0  0
    3.7684   49.6068   30.7981 C   0  0  0  0  0  0  0  0  0  0  0  0
    3.7434   48.1566   32.7267 C   0  0  0  0  0  0  0  0  0  0  0  0
    7.0854   50.4725   29.6434 O   0  0  0  0  0  1  0  0  0  0  0  0
    5.1821   50.2591   28.4476 O   0  0  0  0  0  0  0  0  0  0  0  0
    3.0810   49.0213   31.8602 C   0  0  0  0  0  0  0  0  0  0  0  0
    8.8090   40.1914   34.2077 O   0  0  0  0  0  0  0  0  0  0  0  0
   11.2390   40.7909   33.3682 O   0  0  0  0  0  0  0  0  0  0  0  0
   10.9194   40.6896   31.9946 C   0  0  0  0  0  0  0  0  0  0  0  0
   11.5171   39.3801   31.4397 C   0  0  0  0  0  0  0  0  0  0  0  0
   12.7478   39.0861   32.0733 O   0  0  0  0  0  0  0  0  0  0  0  0
   10.6031   38.1891   31.6666 C   0  0  0  0  0  0  0  0  0  0  0  0
   12.9335   37.6796   32.0280 C   0  0  0  0  0  0  0  0  0  0  0  0
    9.6397   38.0777   30.6456 O   0  0  0  0  0  0  0  0  0  0  0  0
   11.5739   37.0154   31.7057 C   0  0  0  0  0  0  0  0  0  0  0  0
   13.4903   37.2178   33.3231 N   0  0  0  0  0  0  0  0  0  0  0  0
   11.6211   36.3376   30.4695 O   0  0  0  0  0  0  0  0  0  0  0  0
   14.4761   36.3273   33.5725 C   0  0  0  0  0  0  0  0  0  0  0  0
   13.1179   37.6316   34.5684 C   0  0  0  0  0  0  0  0  0  0  0  0
   15.2063   35.6139   32.6737 N   0  0  0  0  0  0  0  0  0  0  0  0
   14.6734   36.2277   34.9180 C   0  0  0  0  0  0  0  0  0  0  0  0
   13.8225   37.0459   35.5779 N   0  0  0  0  0  0  0  0  0  0  0  0
   16.1636   34.7594   33.1546 C   0  0  0  0  0  0  0  0  0  0  0  0
   15.6515   35.3494   35.4129 C   0  0  0  0  0  0  0  0  0  0  0  0
   16.3791   34.6311   34.5041 N   0  0  0  0  0  0  0  0  0  0  0  0
   15.9001   35.1935   36.8088 N   0  0  0  0  0  0  0  0  0  0  0  0
    9.8210   44.9850   32.1457 H   0  0  0  0  0  0  0  0  0  0  0  0
   10.9381   46.8879   32.9066 H   0  0  0  0  0  0  0  0  0  0  0  0
   11.0802   46.3203   34.4896 H   0  0  0  0  0  0  0  0  0  0  0  0
    7.8260   44.9044   33.6987 H   0  0  0  0  0  0  0  0  0  0  0  0
    8.7574   45.7879   34.9518 H   0  0  0  0  0  0  0  0  0  0  0  0
    7.9146   48.9390   31.4955 H   0  0  0  0  0  0  0  0  0  0  0  0
    7.4095   47.8797   30.1374 H   0  0  0  0  0  0  0  0  0  0  0  0
    5.5639   47.1769   33.2177 H   0  0  0  0  0  0  0  0  0  0  0  0
    3.2376   50.2880   30.1450 H   0  0  0  0  0  0  0  0  0  0  0  0
    3.2077   47.7057   33.5523 H   0  0  0  0  0  0  0  0  0  0  0  0
    2.0328   49.2431   32.0144 H   0  0  0  0  0  0  0  0  0  0  0  0
    9.8315   40.7396   31.7549 H   0  0  0  0  0  0  0  0  0  0  0  0
   11.4008   41.5437   31.4721 H   0  0  0  0  0  0  0  0  0  0  0  0
   11.6983   39.5041   30.3470 H   0  0  0  0  0  0  0  0  0  0  0  0
   10.1090   38.2632   32.6649 H   0  0  0  0  0  0  0  0  0  0  0  0
   13.6656   37.4541   31.2207 H   0  0  0  0  0  0  0  0  0  0  0  0
    8.8965   38.6900   30.8852 H   0  0  0  0  0  0  0  0  0  0  0  0
   11.2846   36.3060   32.5175 H   0  0  0  0  0  0  0  0  0  0  0  0
   10.8523   35.7094   30.4590 H   0  0  0  0  0  0  0  0  0  0  0  0
   12.3353   38.3588   34.7439 H   0  0  0  0  0  0  0  0  0  0  0  0
   16.7570   34.1788   32.4619 H   0  0  0  0  0  0  0  0  0  0  0  0
   15.3529   35.7359   37.5136 H   0  0  0  0  0  0  0  0  0  0  0  0
   16.6360   34.5317   37.1413 H   0  0  0  0  0  0  0  0  0  0  0  0
  1  2  2  0
  1  3  1  0
  3  4  1  0
  4  5  1  0
  6  1  1  0
  7  6  1  0
  6  8  1  0
  8  9  1  0
  9 10  1  0
  9 11  2  0
 10 12  1  0
 12 13  1  0
 13 14  2  0
 15 13  1  0
 14 16  1  0
 14 17  1  0
 18 15  2  0
 16 19  1  0
 16 20  2  0
 17 21  2  0
 21 18  1  0
  4 22  2  0
  4 23  1  0
 24 23  1  0
 24 25  1  0
 25 26  1  0
 25 27  1  0
 26 28  1  0
 27 29  1  0
 27 30  1  0
 30 28  1  0
 28 31  1  0
 30 32  1  0
 33 31  1  0
 34 31  1  0
 35 33  2  0
 33 36  1  0
 37 34  2  0
 38 35  1  0
 36 39  2  0
 36 37  1  0
 40 38  2  0
 40 39  1  0
 39 41  1  0
  6 42  1  6
  7 43  1  0
  7 44  1  0
  8 45  1  0
  8 46  1  0
 12 47  1  0
 12 48  1  0
 15 49  1  0
 17 50  1  0
 18 51  1  0
 21 52  1  0
 24 53  1  0
 24 54  1  0
 25 55  1  0
 27 56  1  0
 28 57  1  0
 29 58  1  0
 30 59  1  0
 32 60  1  0
 34 61  1  0
 38 62  1  0
 41 63  1  0
 41 64  1  0
M  CHG  3   5  -1  16   1  19  -1
M  END
>  <EmbedRMS>  (577) 
0.08916882271893574

$$$$

     RDKit          3D

 64 67  0  0  0  0  0  0  0  0999 V2000
   10.2861   43.7719   33.8055 C   0  0  0  0  0  0  0  0  0  0  0  0
   11.4083   43.5876   34.3624 O   0  0  0  0  0  0  0  0  0  0  0  0
    9.3675   42.7309   33.6992 O   0  0  0  0  0  0  0  0  0  0  0  0
    9.8850   41.2341   34.2843 P   0  0  0  0  0  5  0  0  0  0  0  0
   10.3653   41.4700   35.8748 O   0  0  0  0  0  1  0  0  0  0  0  0
    9.9531   45.1156   33.2552 C   0  0  2  0  0  0  0  0  0  0  0  0
   11.0712   46.0346   33.4736 N   0  0  0  0  0  0  0  0  0  0  0  0
    8.6585   45.6717   33.8872 C   0  0  0  0  0  0  0  0  0  0  0  0
    8.7810   45.8917   35.3785 C   0  0  0  0  0  0  0  0  0  0  0  0
    8.9402   47.1598   35.9540 O   0  0  0  0  0  0  0  0  0  0  0  0
    8.7523   44.8904   36.1418 O   0  0  0  0  0  0  0  0  0  0  0  0
    8.8693   48.3899   35.2396 C   0  0  0  0  0  0  0  0  0  0  0  0
    9.0786   49.5338   36.1971 C   0  0  0  0  0  0  0  0  0  0  0  0
    8.0161   50.0908   36.9593 C   0  0  0  0  0  0  0  0  0  0  0  0
   10.3758   50.0588   36.3397 C   0  0  0  0  0  0  0  0  0  0  0  0
    6.6771   49.5660   36.9019 N   0  0  0  0  0  4  0  0  0  0  0  0
    8.2779   51.1932   37.7924 C   0  0  0  0  0  0  0  0  0  0  0  0
   10.6166   51.1417   37.1860 C   0  0  0  0  0  0  0  0  0  0  0  0
    5.6036   50.3995   37.1174 O   0  0  0  0  0  1  0  0  0  0  0  0
    6.4770   48.3358   36.8387 O   0  0  0  0  0  0  0  0  0  0  0  0
    9.5683   51.7128   37.9048 C   0  0  0  0  0  0  0  0  0  0  0  0
    8.8075   40.1912   34.2085 O   0  0  0  0  0  0  0  0  0  0  0  0
   11.2368   40.7901   33.3690 O   0  0  0  0  0  0  0  0  0  0  0  0
   10.9156   40.6897   31.9959 C   0  0  0  0  0  0  0  0  0  0  0  0
   11.5270   39.3898   31.4373 C   0  0  0  0  0  0  0  0  0  0  0  0
   12.7508   39.0916   32.0838 O   0  0  0  0  0  0  0  0  0  0  0  0
   10.6122   38.1915   31.6452 C   0  0  0  0  0  0  0  0  0  0  0  0
   12.9429   37.6852   32.0295 C   0  0  0  0  0  0  0  0  0  0  0  0
    9.6070   38.0858   30.6603 O   0  0  0  0  0  0  0  0  0  0  0  0
   11.5845   37.0186   31.6879 C   0  0  0  0  0  0  0  0  0  0  0  0
   13.4899   37.2163   33.3250 N   0  0  0  0  0  0  0  0  0  0  0  0
   11.6201   36.3062   30.4693 O   0  0  0  0  0  0  0  0  0  0  0  0
   14.4759   36.3263   33.5739 C   0  0  0  0  0  0  0  0  0  0  0  0
   13.1176   37.6307   34.5699 C   0  0  0  0  0  0  0  0  0  0  0  0
   15.2065   35.6139   32.6746 N   0  0  0  0  0  0  0  0  0  0  0  0
   14.6731   36.2267   34.9191 C   0  0  0  0  0  0  0  0  0  0  0  0
   13.8224   37.0450   35.5792 N   0  0  0  0  0  0  0  0  0  0  0  0
   16.1640   34.7596   33.1551 C   0  0  0  0  0  0  0  0  0  0  0  0
   15.6517   35.3489   35.4136 C   0  0  0  0  0  0  0  0  0  0  0  0
   16.3795   34.6310   34.5046 N   0  0  0  0  0  0  0  0  0  0  0  0
   15.9006   35.1931   36.8094 N   0  0  0  0  0  0  0  0  0  0  0  0
    9.7842   45.0017   32.1606 H   0  0  0  0  0  0  0  0  0  0  0  0
   11.9012   45.6791   32.9440 H   0  0  0  0  0  0  0  0  0  0  0  0
   10.8340   46.9469   33.0213 H   0  0  0  0  0  0  0  0  0  0  0  0
    8.3756   46.6090   33.3672 H   0  0  0  0  0  0  0  0  0  0  0  0
    7.8242   44.9605   33.7015 H   0  0  0  0  0  0  0  0  0  0  0  0
    9.6483   48.4099   34.4491 H   0  0  0  0  0  0  0  0  0  0  0  0
    7.8847   48.4883   34.7348 H   0  0  0  0  0  0  0  0  0  0  0  0
   11.2039   49.6350   35.7845 H   0  0  0  0  0  0  0  0  0  0  0  0
    7.4827   51.6398   38.3758 H   0  0  0  0  0  0  0  0  0  0  0  0
   11.6179   51.5417   37.2810 H   0  0  0  0  0  0  0  0  0  0  0  0
    9.7571   52.5551   38.5579 H   0  0  0  0  0  0  0  0  0  0  0  0
   11.3827   41.5526   31.4747 H   0  0  0  0  0  0  0  0  0  0  0  0
    9.8255   40.7191   31.7585 H   0  0  0  0  0  0  0  0  0  0  0  0
   11.7319   39.5337   30.3519 H   0  0  0  0  0  0  0  0  0  0  0  0
   10.1215   38.2682   32.6412 H   0  0  0  0  0  0  0  0  0  0  0  0
   13.6882   37.4707   31.2319 H   0  0  0  0  0  0  0  0  0  0  0  0
   10.0256   38.1751   29.7656 H   0  0  0  0  0  0  0  0  0  0  0  0
   11.2796   36.3123   32.4915 H   0  0  0  0  0  0  0  0  0  0  0  0
   11.9872   36.9099   29.7714 H   0  0  0  0  0  0  0  0  0  0  0  0
   12.3365   38.3595   34.7453 H   0  0  0  0  0  0  0  0  0  0  0  0
   16.7577   34.1794   32.4622 H   0  0  0  0  0  0  0  0  0  0  0  0
   16.6368   34.5316   37.1418 H   0  0  0  0  0  0  0  0  0  0  0  0
   15.3532   35.7351   37.5143 H   0  0  0  0  0  0  0  0  0  0  0  0
  1  2  2  0
  1  3  1  0
  3  4  1  0
  4  5  1  0
  6  1  1  0
  7  6  1  0
  6  8  1  0
  8  9  1  0
  9 10  1  0
  9 11  2  0
 10 12  1  0
 12 13  1  0
 13 14  2  0
 15 13  1  0
 14 16  1  0
 14 17  1  0
 18 15  2  0
 16 19  1  0
 16 20  2  0
 17 21  2  0
 21 18  1  0
  4 22  2  0
  4 23  1  0
 24 23  1  0
 24 25  1  0
 25 26  1  0
 25 27  1  0
 26 28  1  0
 27 29  1  0
 27 30  1  0
 30 28  1  0
 28 31  1  0
 30 32  1  0
 33 31  1  0
 34 31  1  0
 35 33  2  0
 33 36  1  0
 37 34  2  0
 38 35  1  0
 36 39  2  0
 36 37  1  0
 40 38  2  0
 40 39  1  0
 39 41  1  0
  6 42  1  6
  7 43  1  0
  7 44  1  0
  8 45  1  0
  8 46  1  0
 12 47  1  0
 12 48  1  0
 15 49  1  0
 17 50  1  0
 18 51  1  0
 21 52  1  0
 24 53  1  0
 24 54  1  0
 25 55  1  0
 27 56  1  0
 28 57  1  0
 29 58  1  0
 30 59  1  0
 32 60  1  0
 34 61  1  0
 38 62  1  0
 41 63  1  0
 41 64  1  0
M  CHG  3   5  -1  16   1  19  -1
M  END
>  <EmbedRMS>  (578) 
0.08712985949758827

$$$$

     RDKit          3D

 64 67  0  0  0  0  0  0  0  0999 V2000
   10.2827   43.7755   33.8076 C   0  0  0  0  0  0  0  0  0  0  0  0
   11.4084   43.5915   34.3577 O   0  0  0  0  0  0  0  0  0  0  0  0
    9.3666   42.7319   33.7013 O   0  0  0  0  0  0  0  0  0  0  0  0
    9.8859   41.2347   34.2841 P   0  0  0  0  0  5  0  0  0  0  0  0
   10.3669   41.4696   35.8745 O   0  0  0  0  0  1  0  0  0  0  0  0
    9.9532   45.1119   33.2437 C   0  0  2  0  0  0  0  0  0  0  0  0
   11.0729   46.0265   33.4847 N   0  0  0  0  0  0  0  0  0  0  0  0
    8.6401   45.6443   33.8556 C   0  0  0  0  0  0  0  0  0  0  0  0
    8.2266   46.9377   33.2256 C   0  0  0  0  0  0  0  0  0  0  0  0
    8.6087   48.1435   33.8194 O   0  0  0  0  0  0  0  0  0  0  0  0
    7.5730   46.9293   32.1467 O   0  0  0  0  0  0  0  0  0  0  0  0
    8.2868   49.4142   33.2597 C   0  0  0  0  0  0  0  0  0  0  0  0
    8.8294   50.5353   34.1168 C   0  0  0  0  0  0  0  0  0  0  0  0
    9.1764   51.7943   33.5586 C   0  0  0  0  0  0  0  0  0  0  0  0
    8.9695   50.3423   35.5058 C   0  0  0  0  0  0  0  0  0  0  0  0
    8.9575   52.0894   32.1678 N   0  0  0  0  0  4  0  0  0  0  0  0
    9.7325   52.7849   34.3885 C   0  0  0  0  0  0  0  0  0  0  0  0
    9.5056   51.3453   36.3146 C   0  0  0  0  0  0  0  0  0  0  0  0
    7.7899   51.7035   31.5506 O   0  0  0  0  0  1  0  0  0  0  0  0
    9.7321   52.8580   31.5613 O   0  0  0  0  0  0  0  0  0  0  0  0
    9.8974   52.5595   35.7553 C   0  0  0  0  0  0  0  0  0  0  0  0
    8.8085   40.1916   34.2087 O   0  0  0  0  0  0  0  0  0  0  0  0
   11.2374   40.7909   33.3676 O   0  0  0  0  0  0  0  0  0  0  0  0
   10.9151   40.6883   31.9947 C   0  0  0  0  0  0  0  0  0  0  0  0
   11.5260   39.3871   31.4365 C   0  0  0  0  0  0  0  0  0  0  0  0
   12.7490   39.0894   32.0820 O   0  0  0  0  0  0  0  0  0  0  0  0
   10.6123   38.1893   31.6461 C   0  0  0  0  0  0  0  0  0  0  0  0
   12.9373   37.6828   32.0301 C   0  0  0  0  0  0  0  0  0  0  0  0
    9.6150   38.0838   30.6538 O   0  0  0  0  0  0  0  0  0  0  0  0
   11.5793   37.0137   31.7014 C   0  0  0  0  0  0  0  0  0  0  0  0
   13.4906   37.2170   33.3242 N   0  0  0  0  0  0  0  0  0  0  0  0
   11.6217   36.3253   30.4725 O   0  0  0  0  0  0  0  0  0  0  0  0
   14.4763   36.3266   33.5731 C   0  0  0  0  0  0  0  0  0  0  0  0
   13.1182   37.6308   34.5694 C   0  0  0  0  0  0  0  0  0  0  0  0
   15.2065   35.6137   32.6740 N   0  0  0  0  0  0  0  0  0  0  0  0
   14.6736   36.2270   34.9185 C   0  0  0  0  0  0  0  0  0  0  0  0
   13.8229   37.0451   35.5787 N   0  0  0  0  0  0  0  0  0  0  0  0
   16.1639   34.7593   33.1547 C   0  0  0  0  0  0  0  0  0  0  0  0
   15.6519   35.3489   35.4132 C   0  0  0  0  0  0  0  0  0  0  0  0
   16.3795   34.6308   34.5042 N   0  0  0  0  0  0  0  0  0  0  0  0
   15.9006   35.1931   36.8090 N   0  0  0  0  0  0  0  0  0  0  0  0
    9.8194   44.9858   32.1460 H   0  0  0  0  0  0  0  0  0  0  0  0
   11.0751   46.3294   34.4866 H   0  0  0  0  0  0  0  0  0  0  0  0
   10.9468   46.8819   32.8966 H   0  0  0  0  0  0  0  0  0  0  0  0
    7.8249   44.9031   33.7037 H   0  0  0  0  0  0  0  0  0  0  0  0
    8.7589   45.7904   34.9516 H   0  0  0  0  0  0  0  0  0  0  0  0
    8.7313   49.4624   32.2426 H   0  0  0  0  0  0  0  0  0  0  0  0
    7.1831   49.5194   33.1848 H   0  0  0  0  0  0  0  0  0  0  0  0
    8.6737   49.4092   35.9686 H   0  0  0  0  0  0  0  0  0  0  0  0
   10.0141   53.7470   33.9793 H   0  0  0  0  0  0  0  0  0  0  0  0
    9.6198   51.1789   37.3781 H   0  0  0  0  0  0  0  0  0  0  0  0
   10.3156   53.3344   36.3848 H   0  0  0  0  0  0  0  0  0  0  0  0
    9.8248   40.7178   31.7583 H   0  0  0  0  0  0  0  0  0  0  0  0
   11.3819   41.5503   31.4719 H   0  0  0  0  0  0  0  0  0  0  0  0
   11.7291   39.5286   30.3504 H   0  0  0  0  0  0  0  0  0  0  0  0
   10.1139   38.2719   32.6380 H   0  0  0  0  0  0  0  0  0  0  0  0
   13.6726   37.4637   31.2240 H   0  0  0  0  0  0  0  0  0  0  0  0
   10.0536   38.1085   29.7639 H   0  0  0  0  0  0  0  0  0  0  0  0
   11.2646   36.3134   32.5107 H   0  0  0  0  0  0  0  0  0  0  0  0
   12.1550   35.5033   30.6315 H   0  0  0  0  0  0  0  0  0  0  0  0
   12.3362   38.3586   34.7451 H   0  0  0  0  0  0  0  0  0  0  0  0
   16.7573   34.1789   32.4619 H   0  0  0  0  0  0  0  0  0  0  0  0
   16.6366   34.5314   37.1415 H   0  0  0  0  0  0  0  0  0  0  0  0
   15.3533   35.7353   37.5139 H   0  0  0  0  0  0  0  0  0  0  0  0
  1  2  2  0
  1  3  1  0
  3  4  1  0
  4  5  1  0
  6  1  1  0
  7  6  1  0
  6  8  1  0
  8  9  1  0
  9 10  1  0
  9 11  2  0
 10 12  1  0
 12 13  1  0
 13 14  2  0
 15 13  1  0
 14 16  1  0
 14 17  1  0
 18 15  2  0
 16 19  1  0
 16 20  2  0
 17 21  2  0
 21 18  1  0
  4 22  2  0
  4 23  1  0
 24 23  1  0
 24 25  1  0
 25 26  1  0
 25 27  1  0
 26 28  1  0
 27 29  1  0
 27 30  1  0
 30 28  1  0
 28 31  1  0
 30 32  1  0
 33 31  1  0
 34 31  1  0
 35 33  2  0
 33 36  1  0
 37 34  2  0
 38 35  1  0
 36 39  2  0
 36 37  1  0
 40 38  2  0
 40 39  1  0
 39 41  1  0
  6 42  1  6
  7 43  1  0
  7 44  1  0
  8 45  1  0
  8 46  1  0
 12 47  1  0
 12 48  1  0
 15 49  1  0
 17 50  1  0
 18 51  1  0
 21 52  1  0
 24 53  1  0
 24 54  1  0
 25 55  1  0
 27 56  1  0
 28 57  1  0
 29 58  1  0
 30 59  1  0
 32 60  1  0
 34 61  1  0
 38 62  1  0
 41 63  1  0
 41 64  1  0
M  CHG  3   5  -1  16   1  19  -1
M  END
>  <EmbedRMS>  (579) 
0.08762622471883388

$$$$

     RDKit          3D

 64 67  0  0  0  0  0  0  0  0999 V2000
   10.2845   43.7742   33.8067 C   0  0  0  0  0  0  0  0  0  0  0  0
   11.4069   43.5901   34.3636 O   0  0  0  0  0  0  0  0  0  0  0  0
    9.3680   42.7311   33.6987 O   0  0  0  0  0  0  0  0  0  0  0  0
    9.8859   41.2341   34.2835 P   0  0  0  0  0  5  0  0  0  0  0  0
   10.3663   41.4697   35.8740 O   0  0  0  0  0  1  0  0  0  0  0  0
    9.9495   45.1164   33.2547 C   0  0  2  0  0  0  0  0  0  0  0  0
   11.0750   46.0282   33.4734 N   0  0  0  0  0  0  0  0  0  0  0  0
    8.6778   45.6527   33.9426 C   0  0  0  0  0  0  0  0  0  0  0  0
    8.1863   46.9169   33.3064 C   0  0  0  0  0  0  0  0  0  0  0  0
    8.2342   48.1162   34.0268 O   0  0  0  0  0  0  0  0  0  0  0  0
    7.7336   46.8906   32.1291 O   0  0  0  0  0  0  0  0  0  0  0  0
    7.8097   49.3668   33.4855 C   0  0  0  0  0  0  0  0  0  0  0  0
    8.7935   49.8673   32.4507 C   0  0  0  0  0  0  0  0  0  0  0  0
    8.3795   50.4086   31.2048 C   0  0  0  0  0  0  0  0  0  0  0  0
   10.1686   49.7885   32.7384 C   0  0  0  0  0  0  0  0  0  0  0  0
    6.9939   50.6217   30.8927 N   0  0  0  0  0  4  0  0  0  0  0  0
    9.3511   50.7672   30.2547 C   0  0  0  0  0  0  0  0  0  0  0  0
   11.1186   50.1684   31.7896 C   0  0  0  0  0  0  0  0  0  0  0  0
    6.5485   50.4452   29.6030 O   0  0  0  0  0  1  0  0  0  0  0  0
    6.2468   51.1910   31.7149 O   0  0  0  0  0  0  0  0  0  0  0  0
   10.7107   50.6451   30.5452 C   0  0  0  0  0  0  0  0  0  0  0  0
    8.8081   40.1914   34.2081 O   0  0  0  0  0  0  0  0  0  0  0  0
   11.2374   40.7899   33.3677 O   0  0  0  0  0  0  0  0  0  0  0  0
   10.9156   40.6881   31.9946 C   0  0  0  0  0  0  0  0  0  0  0  0
   11.5262   39.3870   31.4363 C   0  0  0  0  0  0  0  0  0  0  0  0
   12.7492   39.0892   32.0818 O   0  0  0  0  0  0  0  0  0  0  0  0
   10.6123   38.1893   31.6461 C   0  0  0  0  0  0  0  0  0  0  0  0
   12.9374   37.6826   32.0301 C   0  0  0  0  0  0  0  0  0  0  0  0
    9.6150   38.0838   30.6538 O   0  0  0  0  0  0  0  0  0  0  0  0
   11.5793   37.0136   31.7014 C   0  0  0  0  0  0  0  0  0  0  0  0
   13.4906   37.2169   33.3242 N   0  0  0  0  0  0  0  0  0  0  0  0
   11.6216   36.3252   30.4725 O   0  0  0  0  0  0  0  0  0  0  0  0
   14.4763   36.3266   33.5731 C   0  0  0  0  0  0  0  0  0  0  0  0
   13.1181   37.6308   34.5694 C   0  0  0  0  0  0  0  0  0  0  0  0
   15.2065   35.6137   32.6740 N   0  0  0  0  0  0  0  0  0  0  0  0
   14.6736   36.2270   34.9185 C   0  0  0  0  0  0  0  0  0  0  0  0
   13.8229   37.0451   35.5787 N   0  0  0  0  0  0  0  0  0  0  0  0
   16.1639   34.7593   33.1547 C   0  0  0  0  0  0  0  0  0  0  0  0
   15.6519   35.3489   35.4132 C   0  0  0  0  0  0  0  0  0  0  0  0
   16.3795   34.6308   34.5042 N   0  0  0  0  0  0  0  0  0  0  0  0
   15.9006   35.1931   36.8090 N   0  0  0  0  0  0  0  0  0  0  0  0
    9.7647   45.0044   32.1621 H   0  0  0  0  0  0  0  0  0  0  0  0
   10.8460   46.9511   33.0404 H   0  0  0  0  0  0  0  0  0  0  0  0
   11.8971   45.6747   32.9302 H   0  0  0  0  0  0  0  0  0  0  0  0
    7.8621   44.8998   33.8762 H   0  0  0  0  0  0  0  0  0  0  0  0
    8.8822   45.8350   35.0206 H   0  0  0  0  0  0  0  0  0  0  0  0
    7.7531   50.1104   34.3075 H   0  0  0  0  0  0  0  0  0  0  0  0
    6.7887   49.2378   33.0723 H   0  0  0  0  0  0  0  0  0  0  0  0
   10.5076   49.4133   33.6963 H   0  0  0  0  0  0  0  0  0  0  0  0
    9.0540   51.1702   29.2948 H   0  0  0  0  0  0  0  0  0  0  0  0
   12.1735   50.0876   32.0182 H   0  0  0  0  0  0  0  0  0  0  0  0
   11.4493   50.9357   29.8093 H   0  0  0  0  0  0  0  0  0  0  0  0
    9.8254   40.7180   31.7577 H   0  0  0  0  0  0  0  0  0  0  0  0
   11.3830   41.5502   31.4724 H   0  0  0  0  0  0  0  0  0  0  0  0
   11.7292   39.5285   30.3502 H   0  0  0  0  0  0  0  0  0  0  0  0
   10.1140   38.2719   32.6379 H   0  0  0  0  0  0  0  0  0  0  0  0
   13.6726   37.4635   31.2240 H   0  0  0  0  0  0  0  0  0  0  0  0
   10.0535   38.1084   29.7638 H   0  0  0  0  0  0  0  0  0  0  0  0
   11.2646   36.3134   32.5107 H   0  0  0  0  0  0  0  0  0  0  0  0
   12.1549   35.5031   30.6316 H   0  0  0  0  0  0  0  0  0  0  0  0
   12.3362   38.3586   34.7450 H   0  0  0  0  0  0  0  0  0  0  0  0
   16.7573   34.1788   32.4619 H   0  0  0  0  0  0  0  0  0  0  0  0
   15.3533   35.7353   37.5139 H   0  0  0  0  0  0  0  0  0  0  0  0
   16.6366   34.5314   37.1415 H   0  0  0  0  0  0  0  0  0  0  0  0
  1  2  2  0
  1  3  1  0
  3  4  1  0
  4  5  1  0
  6  1  1  0
  7  6  1  0
  6  8  1  0
  8  9  1  0
  9 10  1  0
  9 11  2  0
 10 12  1  0
 12 13  1  0
 13 14  2  0
 15 13  1  0
 14 16  1  0
 14 17  1  0
 18 15  2  0
 16 19  1  0
 16 20  2  0
 17 21  2  0
 21 18  1  0
  4 22  2  0
  4 23  1  0
 24 23  1  0
 24 25  1  0
 25 26  1  0
 25 27  1  0
 26 28  1  0
 27 29  1  0
 27 30  1  0
 30 28  1  0
 28 31  1  0
 30 32  1  0
 33 31  1  0
 34 31  1  0
 35 33  2  0
 33 36  1  0
 37 34  2  0
 38 35  1  0
 36 39  2  0
 36 37  1  0
 40 38  2  0
 40 39  1  0
 39 41  1  0
  6 42  1  6
  7 43  1  0
  7 44  1  0
  8 45  1  0
  8 46  1  0
 12 47  1  0
 12 48  1  0
 15 49  1  0
 17 50  1  0
 18 51  1  0
 21 52  1  0
 24 53  1  0
 24 54  1  0
 25 55  1  0
 27 56  1  0
 28 57  1  0
 29 58  1  0
 30 59  1  0
 32 60  1  0
 34 61  1  0
 38 62  1  0
 41 63  1  0
 41 64  1  0
M  CHG  3   5  -1  16   1  19  -1
M  END
>  <EmbedRMS>  (580) 
0.08799738457965606

$$$$

     RDKit          3D

 64 67  0  0  0  0  0  0  0  0999 V2000
   10.2815   43.7760   33.8108 C   0  0  0  0  0  0  0  0  0  0  0  0
   11.4041   43.5937   34.3678 O   0  0  0  0  0  0  0  0  0  0  0  0
    9.3701   42.7291   33.7021 O   0  0  0  0  0  0  0  0  0  0  0  0
    9.8882   41.2330   34.2842 P   0  0  0  0  0  5  0  0  0  0  0  0
   10.3685   41.4679   35.8747 O   0  0  0  0  0  1  0  0  0  0  0  0
    9.9559   45.1155   33.2360 C   0  0  2  0  0  0  0  0  0  0  0  0
   11.0723   46.0302   33.4808 N   0  0  0  0  0  0  0  0  0  0  0  0
    8.6637   45.6957   33.8549 C   0  0  0  0  0  0  0  0  0  0  0  0
    7.4387   44.8935   33.5194 C   0  0  0  0  0  0  0  0  0  0  0  0
    7.3515   44.2347   32.2893 O   0  0  0  0  0  0  0  0  0  0  0  0
    6.4859   44.8388   34.3437 O   0  0  0  0  0  0  0  0  0  0  0  0
    6.3019   43.3258   31.9695 C   0  0  0  0  0  0  0  0  0  0  0  0
    6.6199   42.5461   30.7125 C   0  0  0  0  0  0  0  0  0  0  0  0
    5.5949   41.9262   29.9470 C   0  0  0  0  0  0  0  0  0  0  0  0
    7.9621   42.3848   30.3109 C   0  0  0  0  0  0  0  0  0  0  0  0
    4.2119   41.9803   30.3409 N   0  0  0  0  0  4  0  0  0  0  0  0
    5.9381   41.2318   28.7733 C   0  0  0  0  0  0  0  0  0  0  0  0
    8.2819   41.6706   29.1562 C   0  0  0  0  0  0  0  0  0  0  0  0
    3.2241   41.9534   29.3832 O   0  0  0  0  0  1  0  0  0  0  0  0
    3.8877   41.8605   31.5403 O   0  0  0  0  0  0  0  0  0  0  0  0
    7.2715   41.1039   28.3834 C   0  0  0  0  0  0  0  0  0  0  0  0
    8.8091   40.1916   34.2081 O   0  0  0  0  0  0  0  0  0  0  0  0
   11.2387   40.7908   33.3652 O   0  0  0  0  0  0  0  0  0  0  0  0
   10.9112   40.6821   31.9938 C   0  0  0  0  0  0  0  0  0  0  0  0
   11.5163   39.3770   31.4390 C   0  0  0  0  0  0  0  0  0  0  0  0
   12.7469   39.0855   32.0738 O   0  0  0  0  0  0  0  0  0  0  0  0
   10.6046   38.1862   31.6660 C   0  0  0  0  0  0  0  0  0  0  0  0
   12.9344   37.6791   32.0280 C   0  0  0  0  0  0  0  0  0  0  0  0
    9.6378   38.0921   30.6476 O   0  0  0  0  0  0  0  0  0  0  0  0
   11.5761   37.0127   31.7050 C   0  0  0  0  0  0  0  0  0  0  0  0
   13.4908   37.2177   33.3232 N   0  0  0  0  0  0  0  0  0  0  0  0
   11.6236   36.3369   30.4678 O   0  0  0  0  0  0  0  0  0  0  0  0
   14.4764   36.3272   33.5726 C   0  0  0  0  0  0  0  0  0  0  0  0
   13.1181   37.6316   34.5684 C   0  0  0  0  0  0  0  0  0  0  0  0
   15.2066   35.6138   32.6738 N   0  0  0  0  0  0  0  0  0  0  0  0
   14.6735   36.2276   34.9181 C   0  0  0  0  0  0  0  0  0  0  0  0
   13.8226   37.0458   35.5780 N   0  0  0  0  0  0  0  0  0  0  0  0
   16.1638   34.7593   33.1547 C   0  0  0  0  0  0  0  0  0  0  0  0
   15.6516   35.3493   35.4131 C   0  0  0  0  0  0  0  0  0  0  0  0
   16.3792   34.6310   34.5042 N   0  0  0  0  0  0  0  0  0  0  0  0
   15.9002   35.1935   36.8089 N   0  0  0  0  0  0  0  0  0  0  0  0
    9.8203   45.0039   32.1363 H   0  0  0  0  0  0  0  0  0  0  0  0
   10.8333   46.9642   33.0747 H   0  0  0  0  0  0  0  0  0  0  0  0
   11.9001   45.6965   32.9337 H   0  0  0  0  0  0  0  0  0  0  0  0
    8.5019   46.7266   33.4735 H   0  0  0  0  0  0  0  0  0  0  0  0
    8.7783   45.7581   34.9599 H   0  0  0  0  0  0  0  0  0  0  0  0
    5.3672   43.9108   31.8346 H   0  0  0  0  0  0  0  0  0  0  0  0
    6.1693   42.6034   32.8041 H   0  0  0  0  0  0  0  0  0  0  0  0
    8.7716   42.8139   30.8869 H   0  0  0  0  0  0  0  0  0  0  0  0
    5.1710   40.7612   28.1716 H   0  0  0  0  0  0  0  0  0  0  0  0
    9.3170   41.5576   28.8601 H   0  0  0  0  0  0  0  0  0  0  0  0
    7.5223   40.5531   27.4861 H   0  0  0  0  0  0  0  0  0  0  0  0
   11.3726   41.5421   31.4630 H   0  0  0  0  0  0  0  0  0  0  0  0
    9.8203   40.7039   31.7652 H   0  0  0  0  0  0  0  0  0  0  0  0
   11.6980   39.5023   30.3465 H   0  0  0  0  0  0  0  0  0  0  0  0
   10.1092   38.2760   32.6619 H   0  0  0  0  0  0  0  0  0  0  0  0
   13.6672   37.4547   31.2211 H   0  0  0  0  0  0  0  0  0  0  0  0
    8.9744   37.4205   30.9539 H   0  0  0  0  0  0  0  0  0  0  0  0
   11.2859   36.3038   32.5169 H   0  0  0  0  0  0  0  0  0  0  0  0
   10.8678   35.6933   30.4641 H   0  0  0  0  0  0  0  0  0  0  0  0
   12.3354   38.3587   34.7438 H   0  0  0  0  0  0  0  0  0  0  0  0
   16.7572   34.1786   32.4621 H   0  0  0  0  0  0  0  0  0  0  0  0
   16.6360   34.5316   37.1415 H   0  0  0  0  0  0  0  0  0  0  0  0
   15.3529   35.7358   37.5137 H   0  0  0  0  0  0  0  0  0  0  0  0
  1  2  2  0
  1  3  1  0
  3  4  1  0
  4  5  1  0
  6  1  1  0
  7  6  1  0
  6  8  1  0
  8  9  1  0
  9 10  1  0
  9 11  2  0
 10 12  1  0
 12 13  1  0
 13 14  2  0
 15 13  1  0
 14 16  1  0
 14 17  1  0
 18 15  2  0
 16 19  1  0
 16 20  2  0
 17 21  2  0
 21 18  1  0
  4 22  2  0
  4 23  1  0
 24 23  1  0
 24 25  1  0
 25 26  1  0
 25 27  1  0
 26 28  1  0
 27 29  1  0
 27 30  1  0
 30 28  1  0
 28 31  1  0
 30 32  1  0
 33 31  1  0
 34 31  1  0
 35 33  2  0
 33 36  1  0
 37 34  2  0
 38 35  1  0
 36 39  2  0
 36 37  1  0
 40 38  2  0
 40 39  1  0
 39 41  1  0
  6 42  1  6
  7 43  1  0
  7 44  1  0
  8 45  1  0
  8 46  1  0
 12 47  1  0
 12 48  1  0
 15 49  1  0
 17 50  1  0
 18 51  1  0
 21 52  1  0
 24 53  1  0
 24 54  1  0
 25 55  1  0
 27 56  1  0
 28 57  1  0
 29 58  1  0
 30 59  1  0
 32 60  1  0
 34 61  1  0
 38 62  1  0
 41 63  1  0
 41 64  1  0
M  CHG  3   5  -1  16   1  19  -1
M  END
>  <EmbedRMS>  (581) 
0.08928402832610548

$$$$

     RDKit          3D

 64 67  0  0  0  0  0  0  0  0999 V2000
   10.2829   43.7755   33.8076 C   0  0  0  0  0  0  0  0  0  0  0  0
   11.4086   43.5916   34.3578 O   0  0  0  0  0  0  0  0  0  0  0  0
    9.3666   42.7320   33.7016 O   0  0  0  0  0  0  0  0  0  0  0  0
    9.8860   41.2348   34.2846 P   0  0  0  0  0  5  0  0  0  0  0  0
   10.3662   41.4697   35.8751 O   0  0  0  0  0  1  0  0  0  0  0  0
    9.9536   45.1116   33.2433 C   0  0  2  0  0  0  0  0  0  0  0  0
   11.0724   46.0265   33.4849 N   0  0  0  0  0  0  0  0  0  0  0  0
    8.6396   45.6433   33.8541 C   0  0  0  0  0  0  0  0  0  0  0  0
    8.2365   46.9530   33.2502 C   0  0  0  0  0  0  0  0  0  0  0  0
    8.3486   48.1233   34.0063 O   0  0  0  0  0  0  0  0  0  0  0  0
    7.8113   46.9915   32.0631 O   0  0  0  0  0  0  0  0  0  0  0  0
    7.9856   49.4031   33.4992 C   0  0  0  0  0  0  0  0  0  0  0  0
    8.1553   50.4378   34.5806 C   0  0  0  0  0  0  0  0  0  0  0  0
    9.3836   51.1166   34.7962 C   0  0  0  0  0  0  0  0  0  0  0  0
    7.0530   50.7328   35.4029 C   0  0  0  0  0  0  0  0  0  0  0  0
   10.5614   50.8147   34.0274 N   0  0  0  0  0  4  0  0  0  0  0  0
    9.4507   52.1109   35.7897 C   0  0  0  0  0  0  0  0  0  0  0  0
    7.1456   51.7104   36.3944 C   0  0  0  0  0  0  0  0  0  0  0  0
   10.8857   49.5116   33.7304 O   0  0  0  0  0  1  0  0  0  0  0  0
   11.3939   51.7114   33.7795 O   0  0  0  0  0  0  0  0  0  0  0  0
    8.3398   52.4037   36.5822 C   0  0  0  0  0  0  0  0  0  0  0  0
    8.8089   40.1915   34.2082 O   0  0  0  0  0  0  0  0  0  0  0  0
   11.2386   40.7916   33.3693 O   0  0  0  0  0  0  0  0  0  0  0  0
   10.9187   40.6907   31.9960 C   0  0  0  0  0  0  0  0  0  0  0  0
   11.5175   39.3824   31.4412 C   0  0  0  0  0  0  0  0  0  0  0  0
   12.7494   39.0893   32.0757 O   0  0  0  0  0  0  0  0  0  0  0  0
   10.6036   38.1900   31.6660 C   0  0  0  0  0  0  0  0  0  0  0  0
   12.9401   37.6834   32.0276 C   0  0  0  0  0  0  0  0  0  0  0  0
    9.6376   38.0785   30.6474 O   0  0  0  0  0  0  0  0  0  0  0  0
   11.5803   37.0204   31.6937 C   0  0  0  0  0  0  0  0  0  0  0  0
   13.4902   37.2177   33.3237 N   0  0  0  0  0  0  0  0  0  0  0  0
   11.6118   36.3193   30.4680 O   0  0  0  0  0  0  0  0  0  0  0  0
   14.4759   36.3271   33.5731 C   0  0  0  0  0  0  0  0  0  0  0  0
   13.1176   37.6317   34.5688 C   0  0  0  0  0  0  0  0  0  0  0  0
   15.2064   35.6141   32.6742 N   0  0  0  0  0  0  0  0  0  0  0  0
   14.6729   36.2274   34.9184 C   0  0  0  0  0  0  0  0  0  0  0  0
   13.8221   37.0457   35.5783 N   0  0  0  0  0  0  0  0  0  0  0  0
   16.1637   34.7597   33.1549 C   0  0  0  0  0  0  0  0  0  0  0  0
   15.6514   35.3493   35.4132 C   0  0  0  0  0  0  0  0  0  0  0  0
   16.3791   34.6312   34.5043 N   0  0  0  0  0  0  0  0  0  0  0  0
   15.9001   35.1935   36.8091 N   0  0  0  0  0  0  0  0  0  0  0  0
    9.8212   44.9848   32.1455 H   0  0  0  0  0  0  0  0  0  0  0  0
   10.9498   46.8754   32.8870 H   0  0  0  0  0  0  0  0  0  0  0  0
   11.0665   46.3394   34.4838 H   0  0  0  0  0  0  0  0  0  0  0  0
    7.8198   44.9133   33.6768 H   0  0  0  0  0  0  0  0  0  0  0  0
    8.7506   45.7617   34.9544 H   0  0  0  0  0  0  0  0  0  0  0  0
    8.6045   49.6551   32.6118 H   0  0  0  0  0  0  0  0  0  0  0  0
    6.9269   49.3788   33.1580 H   0  0  0  0  0  0  0  0  0  0  0  0
    6.1131   50.2113   35.2684 H   0  0  0  0  0  0  0  0  0  0  0  0
   10.3748   52.6468   35.9663 H   0  0  0  0  0  0  0  0  0  0  0  0
    6.2877   51.9337   37.0155 H   0  0  0  0  0  0  0  0  0  0  0  0
    8.4082   53.1638   37.3497 H   0  0  0  0  0  0  0  0  0  0  0  0
   11.3992   41.5455   31.4737 H   0  0  0  0  0  0  0  0  0  0  0  0
    9.8307   40.7395   31.7563 H   0  0  0  0  0  0  0  0  0  0  0  0
   11.6989   39.5091   30.3490 H   0  0  0  0  0  0  0  0  0  0  0  0
   10.1130   38.2589   32.6664 H   0  0  0  0  0  0  0  0  0  0  0  0
   13.6800   37.4628   31.2265 H   0  0  0  0  0  0  0  0  0  0  0  0
    8.8952   38.6908   30.8892 H   0  0  0  0  0  0  0  0  0  0  0  0
   11.2830   36.3060   32.4929 H   0  0  0  0  0  0  0  0  0  0  0  0
   11.8859   36.9590   29.7593 H   0  0  0  0  0  0  0  0  0  0  0  0
   12.3360   38.3600   34.7442 H   0  0  0  0  0  0  0  0  0  0  0  0
   16.7572   34.1793   32.4621 H   0  0  0  0  0  0  0  0  0  0  0  0
   16.6362   34.5318   37.1416 H   0  0  0  0  0  0  0  0  0  0  0  0
   15.3528   35.7356   37.5140 H   0  0  0  0  0  0  0  0  0  0  0  0
  1  2  2  0
  1  3  1  0
  3  4  1  0
  4  5  1  0
  6  1  1  0
  7  6  1  0
  6  8  1  0
  8  9  1  0
  9 10  1  0
  9 11  2  0
 10 12  1  0
 12 13  1  0
 13 14  2  0
 15 13  1  0
 14 16  1  0
 14 17  1  0
 18 15  2  0
 16 19  1  0
 16 20  2  0
 17 21  2  0
 21 18  1  0
  4 22  2  0
  4 23  1  0
 24 23  1  0
 24 25  1  0
 25 26  1  0
 25 27  1  0
 26 28  1  0
 27 29  1  0
 27 30  1  0
 30 28  1  0
 28 31  1  0
 30 32  1  0
 33 31  1  0
 34 31  1  0
 35 33  2  0
 33 36  1  0
 37 34  2  0
 38 35  1  0
 36 39  2  0
 36 37  1  0
 40 38  2  0
 40 39  1  0
 39 41  1  0
  6 42  1  6
  7 43  1  0
  7 44  1  0
  8 45  1  0
  8 46  1  0
 12 47  1  0
 12 48  1  0
 15 49  1  0
 17 50  1  0
 18 51  1  0
 21 52  1  0
 24 53  1  0
 24 54  1  0
 25 55  1  0
 27 56  1  0
 28 57  1  0
 29 58  1  0
 30 59  1  0
 32 60  1  0
 34 61  1  0
 38 62  1  0
 41 63  1  0
 41 64  1  0
M  CHG  3   5  -1  16   1  19  -1
M  END
>  <EmbedRMS>  (582) 
0.08801971301960332

$$$$

     RDKit          3D

 64 67  0  0  0  0  0  0  0  0999 V2000
   10.2844   43.7742   33.8067 C   0  0  0  0  0  0  0  0  0  0  0  0
   11.4069   43.5903   34.3635 O   0  0  0  0  0  0  0  0  0  0  0  0
    9.3680   42.7310   33.6986 O   0  0  0  0  0  0  0  0  0  0  0  0
    9.8859   41.2341   34.2835 P   0  0  0  0  0  5  0  0  0  0  0  0
   10.3663   41.4697   35.8740 O   0  0  0  0  0  1  0  0  0  0  0  0
    9.9491   45.1165   33.2550 C   0  0  2  0  0  0  0  0  0  0  0  0
   11.0754   46.0280   33.4733 N   0  0  0  0  0  0  0  0  0  0  0  0
    8.6785   45.6532   33.9433 C   0  0  0  0  0  0  0  0  0  0  0  0
    8.1790   46.9032   33.2876 C   0  0  0  0  0  0  0  0  0  0  0  0
    8.4642   48.1450   33.8659 O   0  0  0  0  0  0  0  0  0  0  0  0
    7.5307   46.8279   32.2081 O   0  0  0  0  0  0  0  0  0  0  0  0
    8.0073   49.3829   33.3241 C   0  0  0  0  0  0  0  0  0  0  0  0
    6.5086   49.5149   33.4715 C   0  0  0  0  0  0  0  0  0  0  0  0
    5.8522   49.3422   34.7200 C   0  0  0  0  0  0  0  0  0  0  0  0
    5.7405   49.7798   32.3227 C   0  0  0  0  0  0  0  0  0  0  0  0
    6.5827   49.0893   35.9342 N   0  0  0  0  0  4  0  0  0  0  0  0
    4.4473   49.4056   34.7689 C   0  0  0  0  0  0  0  0  0  0  0  0
    4.3492   49.8540   32.3970 C   0  0  0  0  0  0  0  0  0  0  0  0
    7.7604   49.7498   36.1960 O   0  0  0  0  0  1  0  0  0  0  0  0
    6.0755   48.3893   36.8350 O   0  0  0  0  0  0  0  0  0  0  0  0
    3.7036   49.6624   33.6165 C   0  0  0  0  0  0  0  0  0  0  0  0
    8.8082   40.1914   34.2081 O   0  0  0  0  0  0  0  0  0  0  0  0
   11.2374   40.7898   33.3677 O   0  0  0  0  0  0  0  0  0  0  0  0
   10.9156   40.6881   31.9947 C   0  0  0  0  0  0  0  0  0  0  0  0
   11.5262   39.3870   31.4363 C   0  0  0  0  0  0  0  0  0  0  0  0
   12.7492   39.0892   32.0818 O   0  0  0  0  0  0  0  0  0  0  0  0
   10.6123   38.1893   31.6461 C   0  0  0  0  0  0  0  0  0  0  0  0
   12.9374   37.6826   32.0301 C   0  0  0  0  0  0  0  0  0  0  0  0
    9.6150   38.0838   30.6538 O   0  0  0  0  0  0  0  0  0  0  0  0
   11.5793   37.0136   31.7014 C   0  0  0  0  0  0  0  0  0  0  0  0
   13.4906   37.2169   33.3242 N   0  0  0  0  0  0  0  0  0  0  0  0
   11.6216   36.3252   30.4725 O   0  0  0  0  0  0  0  0  0  0  0  0
   14.4763   36.3266   33.5731 C   0  0  0  0  0  0  0  0  0  0  0  0
   13.1182   37.6308   34.5694 C   0  0  0  0  0  0  0  0  0  0  0  0
   15.2066   35.6137   32.6740 N   0  0  0  0  0  0  0  0  0  0  0  0
   14.6735   36.2270   34.9185 C   0  0  0  0  0  0  0  0  0  0  0  0
   13.8229   37.0451   35.5787 N   0  0  0  0  0  0  0  0  0  0  0  0
   16.1639   34.7593   33.1547 C   0  0  0  0  0  0  0  0  0  0  0  0
   15.6519   35.3489   35.4132 C   0  0  0  0  0  0  0  0  0  0  0  0
   16.3795   34.6308   34.5042 N   0  0  0  0  0  0  0  0  0  0  0  0
   15.9006   35.1931   36.8090 N   0  0  0  0  0  0  0  0  0  0  0  0
    9.7628   45.0052   32.1625 H   0  0  0  0  0  0  0  0  0  0  0  0
   11.8949   45.6774   32.9244 H   0  0  0  0  0  0  0  0  0  0  0  0
   10.8453   46.9556   33.0496 H   0  0  0  0  0  0  0  0  0  0  0  0
    8.8870   45.8570   35.0166 H   0  0  0  0  0  0  0  0  0  0  0  0
    7.8676   44.8933   33.8967 H   0  0  0  0  0  0  0  0  0  0  0  0
    8.3233   49.4523   32.2599 H   0  0  0  0  0  0  0  0  0  0  0  0
    8.5035   50.2213   33.8539 H   0  0  0  0  0  0  0  0  0  0  0  0
    6.2179   49.9179   31.3604 H   0  0  0  0  0  0  0  0  0  0  0  0
    3.9257   49.2718   35.7082 H   0  0  0  0  0  0  0  0  0  0  0  0
    3.7699   50.0542   31.5048 H   0  0  0  0  0  0  0  0  0  0  0  0
    2.6238   49.7164   33.6706 H   0  0  0  0  0  0  0  0  0  0  0  0
    9.8255   40.7180   31.7577 H   0  0  0  0  0  0  0  0  0  0  0  0
   11.3830   41.5502   31.4724 H   0  0  0  0  0  0  0  0  0  0  0  0
   11.7292   39.5285   30.3502 H   0  0  0  0  0  0  0  0  0  0  0  0
   10.1140   38.2719   32.6379 H   0  0  0  0  0  0  0  0  0  0  0  0
   13.6726   37.4635   31.2240 H   0  0  0  0  0  0  0  0  0  0  0  0
   10.0535   38.1084   29.7638 H   0  0  0  0  0  0  0  0  0  0  0  0
   11.2646   36.3134   32.5107 H   0  0  0  0  0  0  0  0  0  0  0  0
   12.1549   35.5031   30.6316 H   0  0  0  0  0  0  0  0  0  0  0  0
   12.3362   38.3586   34.7450 H   0  0  0  0  0  0  0  0  0  0  0  0
   16.7574   34.1788   32.4619 H   0  0  0  0  0  0  0  0  0  0  0  0
   16.6366   34.5314   37.1415 H   0  0  0  0  0  0  0  0  0  0  0  0
   15.3533   35.7353   37.5139 H   0  0  0  0  0  0  0  0  0  0  0  0
  1  2  2  0
  1  3  1  0
  3  4  1  0
  4  5  1  0
  6  1  1  0
  7  6  1  0
  6  8  1  0
  8  9  1  0
  9 10  1  0
  9 11  2  0
 10 12  1  0
 12 13  1  0
 13 14  2  0
 15 13  1  0
 14 16  1  0
 14 17  1  0
 18 15  2  0
 16 19  1  0
 16 20  2  0
 17 21  2  0
 21 18  1  0
  4 22  2  0
  4 23  1  0
 24 23  1  0
 24 25  1  0
 25 26  1  0
 25 27  1  0
 26 28  1  0
 27 29  1  0
 27 30  1  0
 30 28  1  0
 28 31  1  0
 30 32  1  0
 33 31  1  0
 34 31  1  0
 35 33  2  0
 33 36  1  0
 37 34  2  0
 38 35  1  0
 36 39  2  0
 36 37  1  0
 40 38  2  0
 40 39  1  0
 39 41  1  0
  6 42  1  6
  7 43  1  0
  7 44  1  0
  8 45  1  0
  8 46  1  0
 12 47  1  0
 12 48  1  0
 15 49  1  0
 17 50  1  0
 18 51  1  0
 21 52  1  0
 24 53  1  0
 24 54  1  0
 25 55  1  0
 27 56  1  0
 28 57  1  0
 29 58  1  0
 30 59  1  0
 32 60  1  0
 34 61  1  0
 38 62  1  0
 41 63  1  0
 41 64  1  0
M  CHG  3   5  -1  16   1  19  -1
M  END
>  <EmbedRMS>  (583) 
0.0880062440359957

$$$$

     RDKit          3D

 64 67  0  0  0  0  0  0  0  0999 V2000
   10.2841   43.7719   33.8117 C   0  0  0  0  0  0  0  0  0  0  0  0
   11.4082   43.5829   34.3631 O   0  0  0  0  0  0  0  0  0  0  0  0
    9.3702   42.7281   33.6976 O   0  0  0  0  0  0  0  0  0  0  0  0
    9.8854   41.2320   34.2838 P   0  0  0  0  0  5  0  0  0  0  0  0
   10.3650   41.4687   35.8745 O   0  0  0  0  0  1  0  0  0  0  0  0
    9.9550   45.1193   33.2559 C   0  0  2  0  0  0  0  0  0  0  0  0
   11.0702   46.0444   33.4677 N   0  0  0  0  0  0  0  0  0  0  0  0
    8.6838   45.7053   33.8996 C   0  0  0  0  0  0  0  0  0  0  0  0
    7.4485   44.9657   33.4853 C   0  0  0  0  0  0  0  0  0  0  0  0
    6.8768   44.0385   34.3637 O   0  0  0  0  0  0  0  0  0  0  0  0
    6.9604   45.1567   32.3384 O   0  0  0  0  0  0  0  0  0  0  0  0
    5.7066   43.2810   34.0633 C   0  0  0  0  0  0  0  0  0  0  0  0
    4.4716   44.1426   34.1730 C   0  0  0  0  0  0  0  0  0  0  0  0
    3.8666   44.4438   35.4230 C   0  0  0  0  0  0  0  0  0  0  0  0
    3.8943   44.6436   32.9918 C   0  0  0  0  0  0  0  0  0  0  0  0
    4.4118   43.9676   36.6677 N   0  0  0  0  0  4  0  0  0  0  0  0
    2.6884   45.2135   35.4442 C   0  0  0  0  0  0  0  0  0  0  0  0
    2.7344   45.4175   33.0375 C   0  0  0  0  0  0  0  0  0  0  0  0
    5.7701   43.9546   36.8824 O   0  0  0  0  0  1  0  0  0  0  0  0
    3.6526   43.7156   37.6264 O   0  0  0  0  0  0  0  0  0  0  0  0
    2.1307   45.6990   34.2609 C   0  0  0  0  0  0  0  0  0  0  0  0
    8.8066   40.1907   34.2080 O   0  0  0  0  0  0  0  0  0  0  0  0
   11.2370   40.7878   33.3684 O   0  0  0  0  0  0  0  0  0  0  0  0
   10.9157   40.6877   31.9951 C   0  0  0  0  0  0  0  0  0  0  0  0
   11.5261   39.3869   31.4362 C   0  0  0  0  0  0  0  0  0  0  0  0
   12.7493   39.0891   32.0815 O   0  0  0  0  0  0  0  0  0  0  0  0
   10.6123   38.1892   31.6460 C   0  0  0  0  0  0  0  0  0  0  0  0
   12.9373   37.6825   32.0300 C   0  0  0  0  0  0  0  0  0  0  0  0
    9.6150   38.0838   30.6538 O   0  0  0  0  0  0  0  0  0  0  0  0
   11.5793   37.0135   31.7013 C   0  0  0  0  0  0  0  0  0  0  0  0
   13.4906   37.2169   33.3242 N   0  0  0  0  0  0  0  0  0  0  0  0
   11.6216   36.3252   30.4724 O   0  0  0  0  0  0  0  0  0  0  0  0
   14.4763   36.3266   33.5731 C   0  0  0  0  0  0  0  0  0  0  0  0
   13.1181   37.6308   34.5694 C   0  0  0  0  0  0  0  0  0  0  0  0
   15.2065   35.6137   32.6740 N   0  0  0  0  0  0  0  0  0  0  0  0
   14.6735   36.2270   34.9185 C   0  0  0  0  0  0  0  0  0  0  0  0
   13.8228   37.0451   35.5787 N   0  0  0  0  0  0  0  0  0  0  0  0
   16.1639   34.7593   33.1547 C   0  0  0  0  0  0  0  0  0  0  0  0
   15.6518   35.3489   35.4132 C   0  0  0  0  0  0  0  0  0  0  0  0
   16.3794   34.6308   34.5042 N   0  0  0  0  0  0  0  0  0  0  0  0
   15.9006   35.1931   36.8090 N   0  0  0  0  0  0  0  0  0  0  0  0
    9.7916   45.0162   32.1601 H   0  0  0  0  0  0  0  0  0  0  0  0
   11.9176   45.6905   32.9655 H   0  0  0  0  0  0  0  0  0  0  0  0
   11.2934   46.1151   34.4883 H   0  0  0  0  0  0  0  0  0  0  0  0
    8.7742   45.6876   35.0081 H   0  0  0  0  0  0  0  0  0  0  0  0
    8.5728   46.7681   33.5919 H   0  0  0  0  0  0  0  0  0  0  0  0
    5.7990   42.8286   33.0513 H   0  0  0  0  0  0  0  0  0  0  0  0
    5.6330   42.4319   34.7745 H   0  0  0  0  0  0  0  0  0  0  0  0
    4.3368   44.4254   32.0277 H   0  0  0  0  0  0  0  0  0  0  0  0
    2.2074   45.4523   36.3844 H   0  0  0  0  0  0  0  0  0  0  0  0
    2.2994   45.7946   32.1209 H   0  0  0  0  0  0  0  0  0  0  0  0
    1.2287   46.2965   34.2935 H   0  0  0  0  0  0  0  0  0  0  0  0
   11.3836   41.5502   31.4740 H   0  0  0  0  0  0  0  0  0  0  0  0
    9.8256   40.7181   31.7578 H   0  0  0  0  0  0  0  0  0  0  0  0
   11.7290   39.5287   30.3501 H   0  0  0  0  0  0  0  0  0  0  0  0
   10.1140   38.2718   32.6379 H   0  0  0  0  0  0  0  0  0  0  0  0
   13.6726   37.4632   31.2239 H   0  0  0  0  0  0  0  0  0  0  0  0
   10.0535   38.1084   29.7638 H   0  0  0  0  0  0  0  0  0  0  0  0
   11.2645   36.3134   32.5106 H   0  0  0  0  0  0  0  0  0  0  0  0
   12.1548   35.5031   30.6315 H   0  0  0  0  0  0  0  0  0  0  0  0
   12.3362   38.3586   34.7449 H   0  0  0  0  0  0  0  0  0  0  0  0
   16.7573   34.1788   32.4619 H   0  0  0  0  0  0  0  0  0  0  0  0
   16.6366   34.5314   37.1415 H   0  0  0  0  0  0  0  0  0  0  0  0
   15.3533   35.7353   37.5139 H   0  0  0  0  0  0  0  0  0  0  0  0
  1  2  2  0
  1  3  1  0
  3  4  1  0
  4  5  1  0
  6  1  1  0
  7  6  1  0
  6  8  1  0
  8  9  1  0
  9 10  1  0
  9 11  2  0
 10 12  1  0
 12 13  1  0
 13 14  2  0
 15 13  1  0
 14 16  1  0
 14 17  1  0
 18 15  2  0
 16 19  1  0
 16 20  2  0
 17 21  2  0
 21 18  1  0
  4 22  2  0
  4 23  1  0
 24 23  1  0
 24 25  1  0
 25 26  1  0
 25 27  1  0
 26 28  1  0
 27 29  1  0
 27 30  1  0
 30 28  1  0
 28 31  1  0
 30 32  1  0
 33 31  1  0
 34 31  1  0
 35 33  2  0
 33 36  1  0
 37 34  2  0
 38 35  1  0
 36 39  2  0
 36 37  1  0
 40 38  2  0
 40 39  1  0
 39 41  1  0
  6 42  1  6
  7 43  1  0
  7 44  1  0
  8 45  1  0
  8 46  1  0
 12 47  1  0
 12 48  1  0
 15 49  1  0
 17 50  1  0
 18 51  1  0
 21 52  1  0
 24 53  1  0
 24 54  1  0
 25 55  1  0
 27 56  1  0
 28 57  1  0
 29 58  1  0
 30 59  1  0
 32 60  1  0
 34 61  1  0
 38 62  1  0
 41 63  1  0
 41 64  1  0
M  CHG  3   5  -1  16   1  19  -1
M  END
>  <EmbedRMS>  (584) 
0.08882371794713963

$$$$

     RDKit          3D

 64 67  0  0  0  0  0  0  0  0999 V2000
   10.2832   43.7721   33.8067 C   0  0  0  0  0  0  0  0  0  0  0  0
   11.4082   43.5875   34.3577 O   0  0  0  0  0  0  0  0  0  0  0  0
    9.3637   42.7317   33.7030 O   0  0  0  0  0  0  0  0  0  0  0  0
    9.8852   41.2344   34.2837 P   0  0  0  0  0  5  0  0  0  0  0  0
   10.3704   41.4698   35.8725 O   0  0  0  0  0  1  0  0  0  0  0  0
    9.9637   45.1080   33.2343 C   0  0  2  0  0  0  0  0  0  0  0  0
   11.0663   46.0369   33.4920 N   0  0  0  0  0  0  0  0  0  0  0  0
    8.6044   45.6657   33.7280 C   0  0  0  0  0  0  0  0  0  0  0  0
    8.3394   45.4975   35.1999 C   0  0  0  0  0  0  0  0  0  0  0  0
    7.0356   45.2158   35.6208 O   0  0  0  0  0  0  0  0  0  0  0  0
    9.2610   45.6625   36.0451 O   0  0  0  0  0  0  0  0  0  0  0  0
    6.6938   44.9466   36.9785 C   0  0  0  0  0  0  0  0  0  0  0  0
    7.1555   43.5643   37.3779 C   0  0  0  0  0  0  0  0  0  0  0  0
    6.7609   42.3971   36.6666 C   0  0  0  0  0  0  0  0  0  0  0  0
    8.0289   43.4376   38.4736 C   0  0  0  0  0  0  0  0  0  0  0  0
    5.8755   42.4522   35.5325 N   0  0  0  0  0  4  0  0  0  0  0  0
    7.2647   41.1479   37.0706 C   0  0  0  0  0  0  0  0  0  0  0  0
    8.5091   42.1865   38.8616 C   0  0  0  0  0  0  0  0  0  0  0  0
    5.9803   41.5116   34.5337 O   0  0  0  0  0  1  0  0  0  0  0  0
    4.9067   43.2382   35.5140 O   0  0  0  0  0  0  0  0  0  0  0  0
    8.1277   41.0441   38.1618 C   0  0  0  0  0  0  0  0  0  0  0  0
    8.8097   40.1897   34.2091 O   0  0  0  0  0  0  0  0  0  0  0  0
   11.2364   40.7925   33.3652 O   0  0  0  0  0  0  0  0  0  0  0  0
   10.9123   40.6846   31.9929 C   0  0  0  0  0  0  0  0  0  0  0  0
   11.5170   39.3775   31.4397 C   0  0  0  0  0  0  0  0  0  0  0  0
   12.7472   39.0872   32.0760 O   0  0  0  0  0  0  0  0  0  0  0  0
   10.6066   38.1851   31.6659 C   0  0  0  0  0  0  0  0  0  0  0  0
   12.9370   37.6814   32.0292 C   0  0  0  0  0  0  0  0  0  0  0  0
    9.6402   38.0882   30.6477 O   0  0  0  0  0  0  0  0  0  0  0  0
   11.5788   37.0135   31.7046 C   0  0  0  0  0  0  0  0  0  0  0  0
   13.4914   37.2183   33.3240 N   0  0  0  0  0  0  0  0  0  0  0  0
   11.6125   36.3390   30.4674 O   0  0  0  0  0  0  0  0  0  0  0  0
   14.4765   36.3273   33.5731 C   0  0  0  0  0  0  0  0  0  0  0  0
   13.1183   37.6318   34.5691 C   0  0  0  0  0  0  0  0  0  0  0  0
   15.2065   35.6140   32.6740 N   0  0  0  0  0  0  0  0  0  0  0  0
   14.6735   36.2274   34.9184 C   0  0  0  0  0  0  0  0  0  0  0  0
   13.8227   37.0456   35.5786 N   0  0  0  0  0  0  0  0  0  0  0  0
   16.1637   34.7594   33.1547 C   0  0  0  0  0  0  0  0  0  0  0  0
   15.6516   35.3491   35.4132 C   0  0  0  0  0  0  0  0  0  0  0  0
   16.3792   34.6309   34.5042 N   0  0  0  0  0  0  0  0  0  0  0  0
   15.9003   35.1932   36.8090 N   0  0  0  0  0  0  0  0  0  0  0  0
    9.8891   44.9735   32.1324 H   0  0  0  0  0  0  0  0  0  0  0  0
   11.0913   46.2996   34.5028 H   0  0  0  0  0  0  0  0  0  0  0  0
   10.8982   46.9147   32.9484 H   0  0  0  0  0  0  0  0  0  0  0  0
    8.5227   46.7434   33.4712 H   0  0  0  0  0  0  0  0  0  0  0  0
    7.7948   45.1425   33.1737 H   0  0  0  0  0  0  0  0  0  0  0  0
    7.1284   45.7339   37.6332 H   0  0  0  0  0  0  0  0  0  0  0  0
    5.5939   45.0164   37.1014 H   0  0  0  0  0  0  0  0  0  0  0  0
    8.3469   44.3116   39.0286 H   0  0  0  0  0  0  0  0  0  0  0  0
    6.9785   40.2461   36.5445 H   0  0  0  0  0  0  0  0  0  0  0  0
    9.1820   42.1034   39.7053 H   0  0  0  0  0  0  0  0  0  0  0  0
    8.5042   40.0751   38.4630 H   0  0  0  0  0  0  0  0  0  0  0  0
    9.8219   40.7182   31.7577 H   0  0  0  0  0  0  0  0  0  0  0  0
   11.3826   41.5416   31.4651 H   0  0  0  0  0  0  0  0  0  0  0  0
   11.7003   39.5017   30.3474 H   0  0  0  0  0  0  0  0  0  0  0  0
   10.1095   38.2751   32.6608 H   0  0  0  0  0  0  0  0  0  0  0  0
   13.6712   37.4598   31.2228 H   0  0  0  0  0  0  0  0  0  0  0  0
    9.0028   37.3839   30.9355 H   0  0  0  0  0  0  0  0  0  0  0  0
   11.2706   36.3049   32.5089 H   0  0  0  0  0  0  0  0  0  0  0  0
   12.1444   35.5138   30.6142 H   0  0  0  0  0  0  0  0  0  0  0  0
   12.3361   38.3593   34.7447 H   0  0  0  0  0  0  0  0  0  0  0  0
   16.7570   34.1788   32.4619 H   0  0  0  0  0  0  0  0  0  0  0  0
   15.3531   35.7355   37.5139 H   0  0  0  0  0  0  0  0  0  0  0  0
   16.6362   34.5314   37.1415 H   0  0  0  0  0  0  0  0  0  0  0  0
  1  2  2  0
  1  3  1  0
  3  4  1  0
  4  5  1  0
  6  1  1  0
  7  6  1  0
  6  8  1  0
  8  9  1  0
  9 10  1  0
  9 11  2  0
 10 12  1  0
 12 13  1  0
 13 14  2  0
 15 13  1  0
 14 16  1  0
 14 17  1  0
 18 15  2  0
 16 19  1  0
 16 20  2  0
 17 21  2  0
 21 18  1  0
  4 22  2  0
  4 23  1  0
 24 23  1  0
 24 25  1  0
 25 26  1  0
 25 27  1  0
 26 28  1  0
 27 29  1  0
 27 30  1  0
 30 28  1  0
 28 31  1  0
 30 32  1  0
 33 31  1  0
 34 31  1  0
 35 33  2  0
 33 36  1  0
 37 34  2  0
 38 35  1  0
 36 39  2  0
 36 37  1  0
 40 38  2  0
 40 39  1  0
 39 41  1  0
  6 42  1  6
  7 43  1  0
  7 44  1  0
  8 45  1  0
  8 46  1  0
 12 47  1  0
 12 48  1  0
 15 49  1  0
 17 50  1  0
 18 51  1  0
 21 52  1  0
 24 53  1  0
 24 54  1  0
 25 55  1  0
 27 56  1  0
 28 57  1  0
 29 58  1  0
 30 59  1  0
 32 60  1  0
 34 61  1  0
 38 62  1  0
 41 63  1  0
 41 64  1  0
M  CHG  3   5  -1  16   1  19  -1
M  END
>  <EmbedRMS>  (585) 
0.08820377068121964

$$$$

     RDKit          3D

 64 67  0  0  0  0  0  0  0  0999 V2000
   10.2860   43.7719   33.8044 C   0  0  0  0  0  0  0  0  0  0  0  0
   11.4086   43.5883   34.3608 O   0  0  0  0  0  0  0  0  0  0  0  0
    9.3671   42.7311   33.6995 O   0  0  0  0  0  0  0  0  0  0  0  0
    9.8850   41.2344   34.2845 P   0  0  0  0  0  5  0  0  0  0  0  0
   10.3655   41.4704   35.8749 O   0  0  0  0  0  1  0  0  0  0  0  0
    9.9532   45.1148   33.2532 C   0  0  2  0  0  0  0  0  0  0  0  0
   11.0711   46.0329   33.4770 N   0  0  0  0  0  0  0  0  0  0  0  0
    8.6596   45.6661   33.8870 C   0  0  0  0  0  0  0  0  0  0  0  0
    8.7687   45.8151   35.3761 C   0  0  0  0  0  0  0  0  0  0  0  0
    9.4907   46.8856   35.9105 O   0  0  0  0  0  0  0  0  0  0  0  0
    8.2354   44.9578   36.1324 O   0  0  0  0  0  0  0  0  0  0  0  0
    9.6440   47.0858   37.3121 C   0  0  0  0  0  0  0  0  0  0  0  0
   10.5514   48.2643   37.5624 C   0  0  0  0  0  0  0  0  0  0  0  0
   11.8671   48.3344   37.0276 C   0  0  0  0  0  0  0  0  0  0  0  0
   10.0601   49.3441   38.3200 C   0  0  0  0  0  0  0  0  0  0  0  0
   12.4355   47.2588   36.2568 N   0  0  0  0  0  4  0  0  0  0  0  0
   12.6324   49.4955   37.2452 C   0  0  0  0  0  0  0  0  0  0  0  0
   10.8427   50.4789   38.5355 C   0  0  0  0  0  0  0  0  0  0  0  0
   12.2167   45.9475   36.6088 O   0  0  0  0  0  1  0  0  0  0  0  0
   13.2680   47.5054   35.3595 O   0  0  0  0  0  0  0  0  0  0  0  0
   12.1244   50.5563   37.9956 C   0  0  0  0  0  0  0  0  0  0  0  0
    8.8076   40.1914   34.2088 O   0  0  0  0  0  0  0  0  0  0  0  0
   11.2368   40.7904   33.3691 O   0  0  0  0  0  0  0  0  0  0  0  0
   10.9155   40.6898   31.9960 C   0  0  0  0  0  0  0  0  0  0  0  0
   11.5270   39.3898   31.4374 C   0  0  0  0  0  0  0  0  0  0  0  0
   12.7507   39.0916   32.0839 O   0  0  0  0  0  0  0  0  0  0  0  0
   10.6122   38.1916   31.6452 C   0  0  0  0  0  0  0  0  0  0  0  0
   12.9429   37.6853   32.0295 C   0  0  0  0  0  0  0  0  0  0  0  0
    9.6070   38.0858   30.6603 O   0  0  0  0  0  0  0  0  0  0  0  0
   11.5845   37.0186   31.6879 C   0  0  0  0  0  0  0  0  0  0  0  0
   13.4899   37.2163   33.3250 N   0  0  0  0  0  0  0  0  0  0  0  0
   11.6201   36.3063   30.4693 O   0  0  0  0  0  0  0  0  0  0  0  0
   14.4759   36.3263   33.5738 C   0  0  0  0  0  0  0  0  0  0  0  0
   13.1176   37.6308   34.5699 C   0  0  0  0  0  0  0  0  0  0  0  0
   15.2065   35.6139   32.6746 N   0  0  0  0  0  0  0  0  0  0  0  0
   14.6731   36.2267   34.9191 C   0  0  0  0  0  0  0  0  0  0  0  0
   13.8224   37.0450   35.5792 N   0  0  0  0  0  0  0  0  0  0  0  0
   16.1640   34.7596   33.1551 C   0  0  0  0  0  0  0  0  0  0  0  0
   15.6517   35.3489   35.4136 C   0  0  0  0  0  0  0  0  0  0  0  0
   16.3795   34.6310   34.5046 N   0  0  0  0  0  0  0  0  0  0  0  0
   15.9006   35.1931   36.8094 N   0  0  0  0  0  0  0  0  0  0  0  0
    9.7850   45.0060   32.1581 H   0  0  0  0  0  0  0  0  0  0  0  0
   11.8839   45.7119   32.9010 H   0  0  0  0  0  0  0  0  0  0  0  0
   10.8116   46.9719   33.0957 H   0  0  0  0  0  0  0  0  0  0  0  0
    8.4245   46.6582   33.4450 H   0  0  0  0  0  0  0  0  0  0  0  0
    7.8082   44.9942   33.6401 H   0  0  0  0  0  0  0  0  0  0  0  0
    8.6396   47.2519   37.7600 H   0  0  0  0  0  0  0  0  0  0  0  0
   10.0681   46.1787   37.7915 H   0  0  0  0  0  0  0  0  0  0  0  0
    9.0622   49.3147   38.7399 H   0  0  0  0  0  0  0  0  0  0  0  0
   13.6353   49.5732   36.8446 H   0  0  0  0  0  0  0  0  0  0  0  0
   10.4514   51.3031   39.1179 H   0  0  0  0  0  0  0  0  0  0  0  0
   12.7279   51.4394   38.1612 H   0  0  0  0  0  0  0  0  0  0  0  0
    9.8254   40.7191   31.7587 H   0  0  0  0  0  0  0  0  0  0  0  0
   11.3825   41.5526   31.4747 H   0  0  0  0  0  0  0  0  0  0  0  0
   11.7318   39.5339   30.3520 H   0  0  0  0  0  0  0  0  0  0  0  0
   10.1214   38.2682   32.6413 H   0  0  0  0  0  0  0  0  0  0  0  0
   13.6882   37.4708   31.2319 H   0  0  0  0  0  0  0  0  0  0  0  0
   10.0257   38.1751   29.7656 H   0  0  0  0  0  0  0  0  0  0  0  0
   11.2796   36.3123   32.4915 H   0  0  0  0  0  0  0  0  0  0  0  0
   11.9872   36.9099   29.7714 H   0  0  0  0  0  0  0  0  0  0  0  0
   12.3365   38.3596   34.7453 H   0  0  0  0  0  0  0  0  0  0  0  0
   16.7576   34.1794   32.4622 H   0  0  0  0  0  0  0  0  0  0  0  0
   16.6368   34.5316   37.1418 H   0  0  0  0  0  0  0  0  0  0  0  0
   15.3532   35.7351   37.5143 H   0  0  0  0  0  0  0  0  0  0  0  0
  1  2  2  0
  1  3  1  0
  3  4  1  0
  4  5  1  0
  6  1  1  0
  7  6  1  0
  6  8  1  0
  8  9  1  0
  9 10  1  0
  9 11  2  0
 10 12  1  0
 12 13  1  0
 13 14  2  0
 15 13  1  0
 14 16  1  0
 14 17  1  0
 18 15  2  0
 16 19  1  0
 16 20  2  0
 17 21  2  0
 21 18  1  0
  4 22  2  0
  4 23  1  0
 24 23  1  0
 24 25  1  0
 25 26  1  0
 25 27  1  0
 26 28  1  0
 27 29  1  0
 27 30  1  0
 30 28  1  0
 28 31  1  0
 30 32  1  0
 33 31  1  0
 34 31  1  0
 35 33  2  0
 33 36  1  0
 37 34  2  0
 38 35  1  0
 36 39  2  0
 36 37  1  0
 40 38  2  0
 40 39  1  0
 39 41  1  0
  6 42  1  6
  7 43  1  0
  7 44  1  0
  8 45  1  0
  8 46  1  0
 12 47  1  0
 12 48  1  0
 15 49  1  0
 17 50  1  0
 18 51  1  0
 21 52  1  0
 24 53  1  0
 24 54  1  0
 25 55  1  0
 27 56  1  0
 28 57  1  0
 29 58  1  0
 30 59  1  0
 32 60  1  0
 34 61  1  0
 38 62  1  0
 41 63  1  0
 41 64  1  0
M  CHG  3   5  -1  16   1  19  -1
M  END
>  <EmbedRMS>  (586) 
0.08696010879032236

$$$$

     RDKit          3D

 64 67  0  0  0  0  0  0  0  0999 V2000
   10.2877   43.7688   33.8087 C   0  0  0  0  0  0  0  0  0  0  0  0
   11.4117   43.5793   34.3596 O   0  0  0  0  0  0  0  0  0  0  0  0
    9.3668   42.7302   33.7017 O   0  0  0  0  0  0  0  0  0  0  0  0
    9.8845   41.2325   34.2841 P   0  0  0  0  0  5  0  0  0  0  0  0
   10.3646   41.4678   35.8748 O   0  0  0  0  0  1  0  0  0  0  0  0
    9.9639   45.1115   33.2469 C   0  0  2  0  0  0  0  0  0  0  0  0
   11.0621   46.0541   33.4764 N   0  0  0  0  0  0  0  0  0  0  0  0
    8.6423   45.6681   33.8107 C   0  0  0  0  0  0  0  0  0  0  0  0
    8.6654   45.8208   35.3029 C   0  0  0  0  0  0  0  0  0  0  0  0
    9.1466   47.0060   35.8653 O   0  0  0  0  0  0  0  0  0  0  0  0
    8.2825   44.8691   36.0372 O   0  0  0  0  0  0  0  0  0  0  0  0
    9.2411   47.2075   37.2731 C   0  0  0  0  0  0  0  0  0  0  0  0
    9.7991   48.5771   37.5867 C   0  0  0  0  0  0  0  0  0  0  0  0
   10.5296   48.8253   38.7792 C   0  0  0  0  0  0  0  0  0  0  0  0
    9.5681   49.6422   36.6933 C   0  0  0  0  0  0  0  0  0  0  0  0
   10.7080   47.8081   39.7804 N   0  0  0  0  0  4  0  0  0  0  0  0
   11.0784   50.1023   38.9963 C   0  0  0  0  0  0  0  0  0  0  0  0
   10.1055   50.9068   36.9371 C   0  0  0  0  0  0  0  0  0  0  0  0
    9.6599   46.9903   40.1352 O   0  0  0  0  0  1  0  0  0  0  0  0
   11.7498   47.7821   40.4681 O   0  0  0  0  0  0  0  0  0  0  0  0
   10.8691   51.1333   38.0800 C   0  0  0  0  0  0  0  0  0  0  0  0
    8.8069   40.1899   34.2075 O   0  0  0  0  0  0  0  0  0  0  0  0
   11.2377   40.7893   33.3690 O   0  0  0  0  0  0  0  0  0  0  0  0
   10.9192   40.6893   31.9951 C   0  0  0  0  0  0  0  0  0  0  0  0
   11.5170   39.3801   31.4397 C   0  0  0  0  0  0  0  0  0  0  0  0
   12.7478   39.0861   32.0733 O   0  0  0  0  0  0  0  0  0  0  0  0
   10.6031   38.1890   31.6666 C   0  0  0  0  0  0  0  0  0  0  0  0
   12.9335   37.6796   32.0279 C   0  0  0  0  0  0  0  0  0  0  0  0
    9.6397   38.0776   30.6456 O   0  0  0  0  0  0  0  0  0  0  0  0
   11.5739   37.0154   31.7057 C   0  0  0  0  0  0  0  0  0  0  0  0
   13.4903   37.2178   33.3231 N   0  0  0  0  0  0  0  0  0  0  0  0
   11.6211   36.3376   30.4694 O   0  0  0  0  0  0  0  0  0  0  0  0
   14.4761   36.3273   33.5725 C   0  0  0  0  0  0  0  0  0  0  0  0
   13.1178   37.6317   34.5684 C   0  0  0  0  0  0  0  0  0  0  0  0
   15.2063   35.6139   32.6737 N   0  0  0  0  0  0  0  0  0  0  0  0
   14.6734   36.2277   34.9180 C   0  0  0  0  0  0  0  0  0  0  0  0
   13.8225   37.0459   35.5779 N   0  0  0  0  0  0  0  0  0  0  0  0
   16.1636   34.7594   33.1546 C   0  0  0  0  0  0  0  0  0  0  0  0
   15.6515   35.3494   35.4129 C   0  0  0  0  0  0  0  0  0  0  0  0
   16.3791   34.6311   34.5041 N   0  0  0  0  0  0  0  0  0  0  0  0
   15.9001   35.1935   36.8088 N   0  0  0  0  0  0  0  0  0  0  0  0
    9.8333   44.9916   32.1489 H   0  0  0  0  0  0  0  0  0  0  0  0
   11.9091   45.7280   32.9553 H   0  0  0  0  0  0  0  0  0  0  0  0
   11.3047   46.0960   34.4935 H   0  0  0  0  0  0  0  0  0  0  0  0
    8.4400   46.6598   33.3513 H   0  0  0  0  0  0  0  0  0  0  0  0
    7.8023   44.9988   33.5220 H   0  0  0  0  0  0  0  0  0  0  0  0
    8.2330   47.1153   37.7312 H   0  0  0  0  0  0  0  0  0  0  0  0
    9.9071   46.4203   37.6869 H   0  0  0  0  0  0  0  0  0  0  0  0
    8.9787   49.4959   35.7968 H   0  0  0  0  0  0  0  0  0  0  0  0
   11.6482   50.3078   39.8938 H   0  0  0  0  0  0  0  0  0  0  0  0
    9.9311   51.7128   36.2359 H   0  0  0  0  0  0  0  0  0  0  0  0
   11.2870   52.1145   38.2650 H   0  0  0  0  0  0  0  0  0  0  0  0
   11.4013   41.5437   31.4737 H   0  0  0  0  0  0  0  0  0  0  0  0
    9.8315   40.7397   31.7546 H   0  0  0  0  0  0  0  0  0  0  0  0
   11.6981   39.5044   30.3471 H   0  0  0  0  0  0  0  0  0  0  0  0
   10.1089   38.2630   32.6649 H   0  0  0  0  0  0  0  0  0  0  0  0
   13.6656   37.4541   31.2207 H   0  0  0  0  0  0  0  0  0  0  0  0
    8.8965   38.6899   30.8851 H   0  0  0  0  0  0  0  0  0  0  0  0
   11.2846   36.3059   32.5175 H   0  0  0  0  0  0  0  0  0  0  0  0
   10.8524   35.7094   30.4589 H   0  0  0  0  0  0  0  0  0  0  0  0
   12.3353   38.3588   34.7439 H   0  0  0  0  0  0  0  0  0  0  0  0
   16.7570   34.1788   32.4619 H   0  0  0  0  0  0  0  0  0  0  0  0
   15.3529   35.7359   37.5136 H   0  0  0  0  0  0  0  0  0  0  0  0
   16.6360   34.5317   37.1413 H   0  0  0  0  0  0  0  0  0  0  0  0
  1  2  2  0
  1  3  1  0
  3  4  1  0
  4  5  1  0
  6  1  1  0
  7  6  1  0
  6  8  1  0
  8  9  1  0
  9 10  1  0
  9 11  2  0
 10 12  1  0
 12 13  1  0
 13 14  2  0
 15 13  1  0
 14 16  1  0
 14 17  1  0
 18 15  2  0
 16 19  1  0
 16 20  2  0
 17 21  2  0
 21 18  1  0
  4 22  2  0
  4 23  1  0
 24 23  1  0
 24 25  1  0
 25 26  1  0
 25 27  1  0
 26 28  1  0
 27 29  1  0
 27 30  1  0
 30 28  1  0
 28 31  1  0
 30 32  1  0
 33 31  1  0
 34 31  1  0
 35 33  2  0
 33 36  1  0
 37 34  2  0
 38 35  1  0
 36 39  2  0
 36 37  1  0
 40 38  2  0
 40 39  1  0
 39 41  1  0
  6 42  1  6
  7 43  1  0
  7 44  1  0
  8 45  1  0
  8 46  1  0
 12 47  1  0
 12 48  1  0
 15 49  1  0
 17 50  1  0
 18 51  1  0
 21 52  1  0
 24 53  1  0
 24 54  1  0
 25 55  1  0
 27 56  1  0
 28 57  1  0
 29 58  1  0
 30 59  1  0
 32 60  1  0
 34 61  1  0
 38 62  1  0
 41 63  1  0
 41 64  1  0
M  CHG  3   5  -1  16   1  19  -1
M  END
>  <EmbedRMS>  (587) 
0.09008848418073076

$$$$

     RDKit          3D

 64 67  0  0  0  0  0  0  0  0999 V2000
   10.2859   43.7721   33.8048 C   0  0  0  0  0  0  0  0  0  0  0  0
   11.4085   43.5885   34.3611 O   0  0  0  0  0  0  0  0  0  0  0  0
    9.3672   42.7311   33.6995 O   0  0  0  0  0  0  0  0  0  0  0  0
    9.8850   41.2344   34.2844 P   0  0  0  0  0  5  0  0  0  0  0  0
   10.3655   41.4702   35.8749 O   0  0  0  0  0  1  0  0  0  0  0  0
    9.9530   45.1149   33.2534 C   0  0  2  0  0  0  0  0  0  0  0  0
   11.0713   46.0333   33.4765 N   0  0  0  0  0  0  0  0  0  0  0  0
    8.6604   45.6661   33.8887 C   0  0  0  0  0  0  0  0  0  0  0  0
    8.7939   45.8687   35.3688 C   0  0  0  0  0  0  0  0  0  0  0  0
    9.3561   47.0565   35.8527 O   0  0  0  0  0  0  0  0  0  0  0  0
    8.4237   44.9595   36.1612 O   0  0  0  0  0  0  0  0  0  0  0  0
    9.5621   47.3232   37.2408 C   0  0  0  0  0  0  0  0  0  0  0  0
    8.3827   48.0236   37.8898 C   0  0  0  0  0  0  0  0  0  0  0  0
    8.5285   48.6729   39.1469 C   0  0  0  0  0  0  0  0  0  0  0  0
    7.1243   48.0546   37.2516 C   0  0  0  0  0  0  0  0  0  0  0  0
    9.7739   48.6554   39.8692 N   0  0  0  0  0  4  0  0  0  0  0  0
    7.4326   49.3614   39.6987 C   0  0  0  0  0  0  0  0  0  0  0  0
    6.0473   48.7304   37.8264 C   0  0  0  0  0  0  0  0  0  0  0  0
   10.5303   47.5084   39.9362 O   0  0  0  0  0  1  0  0  0  0  0  0
   10.0964   49.6278   40.5828 O   0  0  0  0  0  0  0  0  0  0  0  0
    6.2022   49.3868   39.0440 C   0  0  0  0  0  0  0  0  0  0  0  0
    8.8076   40.1914   34.2087 O   0  0  0  0  0  0  0  0  0  0  0  0
   11.2369   40.7903   33.3690 O   0  0  0  0  0  0  0  0  0  0  0  0
   10.9155   40.6897   31.9960 C   0  0  0  0  0  0  0  0  0  0  0  0
   11.5270   39.3898   31.4374 C   0  0  0  0  0  0  0  0  0  0  0  0
   12.7508   39.0916   32.0839 O   0  0  0  0  0  0  0  0  0  0  0  0
   10.6122   38.1916   31.6452 C   0  0  0  0  0  0  0  0  0  0  0  0
   12.9429   37.6852   32.0295 C   0  0  0  0  0  0  0  0  0  0  0  0
    9.6070   38.0858   30.6603 O   0  0  0  0  0  0  0  0  0  0  0  0
   11.5845   37.0186   31.6879 C   0  0  0  0  0  0  0  0  0  0  0  0
   13.4899   37.2163   33.3250 N   0  0  0  0  0  0  0  0  0  0  0  0
   11.6201   36.3062   30.4693 O   0  0  0  0  0  0  0  0  0  0  0  0
   14.4759   36.3263   33.5738 C   0  0  0  0  0  0  0  0  0  0  0  0
   13.1176   37.6307   34.5699 C   0  0  0  0  0  0  0  0  0  0  0  0
   15.2065   35.6139   32.6746 N   0  0  0  0  0  0  0  0  0  0  0  0
   14.6731   36.2267   34.9191 C   0  0  0  0  0  0  0  0  0  0  0  0
   13.8224   37.0450   35.5792 N   0  0  0  0  0  0  0  0  0  0  0  0
   16.1640   34.7596   33.1551 C   0  0  0  0  0  0  0  0  0  0  0  0
   15.6517   35.3489   35.4136 C   0  0  0  0  0  0  0  0  0  0  0  0
   16.3795   34.6310   34.5046 N   0  0  0  0  0  0  0  0  0  0  0  0
   15.9006   35.1931   36.8094 N   0  0  0  0  0  0  0  0  0  0  0  0
    9.7834   45.0051   32.1586 H   0  0  0  0  0  0  0  0  0  0  0  0
   10.8101   46.9716   33.0946 H   0  0  0  0  0  0  0  0  0  0  0  0
   11.8827   45.7124   32.8983 H   0  0  0  0  0  0  0  0  0  0  0  0
    8.4031   46.6385   33.4161 H   0  0  0  0  0  0  0  0  0  0  0  0
    7.8143   44.9744   33.6819 H   0  0  0  0  0  0  0  0  0  0  0  0
    9.7899   46.3801   37.7824 H   0  0  0  0  0  0  0  0  0  0  0  0
   10.4519   47.9828   37.3190 H   0  0  0  0  0  0  0  0  0  0  0  0
    6.9630   47.5710   36.2993 H   0  0  0  0  0  0  0  0  0  0  0  0
    7.5271   49.8662   40.6519 H   0  0  0  0  0  0  0  0  0  0  0  0
    5.0898   48.7496   37.3216 H   0  0  0  0  0  0  0  0  0  0  0  0
    5.3653   49.9130   39.4848 H   0  0  0  0  0  0  0  0  0  0  0  0
   11.3825   41.5526   31.4746 H   0  0  0  0  0  0  0  0  0  0  0  0
    9.8254   40.7190   31.7587 H   0  0  0  0  0  0  0  0  0  0  0  0
   11.7318   39.5338   30.3520 H   0  0  0  0  0  0  0  0  0  0  0  0
   10.1215   38.2682   32.6413 H   0  0  0  0  0  0  0  0  0  0  0  0
   13.6882   37.4708   31.2319 H   0  0  0  0  0  0  0  0  0  0  0  0
   10.0257   38.1751   29.7656 H   0  0  0  0  0  0  0  0  0  0  0  0
   11.2796   36.3123   32.4915 H   0  0  0  0  0  0  0  0  0  0  0  0
   11.9872   36.9099   29.7714 H   0  0  0  0  0  0  0  0  0  0  0  0
   12.3365   38.3595   34.7453 H   0  0  0  0  0  0  0  0  0  0  0  0
   16.7577   34.1794   32.4622 H   0  0  0  0  0  0  0  0  0  0  0  0
   16.6368   34.5316   37.1418 H   0  0  0  0  0  0  0  0  0  0  0  0
   15.3532   35.7351   37.5143 H   0  0  0  0  0  0  0  0  0  0  0  0
  1  2  2  0
  1  3  1  0
  3  4  1  0
  4  5  1  0
  6  1  1  0
  7  6  1  0
  6  8  1  0
  8  9  1  0
  9 10  1  0
  9 11  2  0
 10 12  1  0
 12 13  1  0
 13 14  2  0
 15 13  1  0
 14 16  1  0
 14 17  1  0
 18 15  2  0
 16 19  1  0
 16 20  2  0
 17 21  2  0
 21 18  1  0
  4 22  2  0
  4 23  1  0
 24 23  1  0
 24 25  1  0
 25 26  1  0
 25 27  1  0
 26 28  1  0
 27 29  1  0
 27 30  1  0
 30 28  1  0
 28 31  1  0
 30 32  1  0
 33 31  1  0
 34 31  1  0
 35 33  2  0
 33 36  1  0
 37 34  2  0
 38 35  1  0
 36 39  2  0
 36 37  1  0
 40 38  2  0
 40 39  1  0
 39 41  1  0
  6 42  1  6
  7 43  1  0
  7 44  1  0
  8 45  1  0
  8 46  1  0
 12 47  1  0
 12 48  1  0
 15 49  1  0
 17 50  1  0
 18 51  1  0
 21 52  1  0
 24 53  1  0
 24 54  1  0
 25 55  1  0
 27 56  1  0
 28 57  1  0
 29 58  1  0
 30 59  1  0
 32 60  1  0
 34 61  1  0
 38 62  1  0
 41 63  1  0
 41 64  1  0
M  CHG  3   5  -1  16   1  19  -1
M  END
>  <EmbedRMS>  (588) 
0.08700907883046823

$$$$

     RDKit          3D

 64 67  0  0  0  0  0  0  0  0999 V2000
   10.2862   43.7718   33.8056 C   0  0  0  0  0  0  0  0  0  0  0  0
   11.4084   43.5877   34.3625 O   0  0  0  0  0  0  0  0  0  0  0  0
    9.3678   42.7307   33.6991 O   0  0  0  0  0  0  0  0  0  0  0  0
    9.8854   41.2339   34.2842 P   0  0  0  0  0  5  0  0  0  0  0  0
   10.3650   41.4699   35.8749 O   0  0  0  0  0  1  0  0  0  0  0  0
    9.9532   45.1155   33.2551 C   0  0  2  0  0  0  0  0  0  0  0  0
   11.0710   46.0346   33.4737 N   0  0  0  0  0  0  0  0  0  0  0  0
    8.6582   45.6715   33.8862 C   0  0  0  0  0  0  0  0  0  0  0  0
    8.7794   45.8915   35.3776 C   0  0  0  0  0  0  0  0  0  0  0  0
    8.9328   47.1599   35.9538 O   0  0  0  0  0  0  0  0  0  0  0  0
    8.7535   44.8899   36.1407 O   0  0  0  0  0  0  0  0  0  0  0  0
    8.8601   48.3911   35.2397 C   0  0  0  0  0  0  0  0  0  0  0  0
    9.0295   49.5445   36.1973 C   0  0  0  0  0  0  0  0  0  0  0  0
    8.2079   49.7005   37.3470 C   0  0  0  0  0  0  0  0  0  0  0  0
   10.0577   50.4756   35.9575 C   0  0  0  0  0  0  0  0  0  0  0  0
    7.1288   48.7934   37.6404 N   0  0  0  0  0  4  0  0  0  0  0  0
    8.4652   50.7635   38.2328 C   0  0  0  0  0  0  0  0  0  0  0  0
   10.2847   51.5310   36.8416 C   0  0  0  0  0  0  0  0  0  0  0  0
    6.3166   48.3184   36.6374 O   0  0  0  0  0  1  0  0  0  0  0  0
    6.8172   48.5555   38.8258 O   0  0  0  0  0  0  0  0  0  0  0  0
    9.4933   51.6719   37.9791 C   0  0  0  0  0  0  0  0  0  0  0  0
    8.8080   40.1910   34.2078 O   0  0  0  0  0  0  0  0  0  0  0  0
   11.2382   40.7902   33.3697 O   0  0  0  0  0  0  0  0  0  0  0  0
   10.9191   40.6904   31.9961 C   0  0  0  0  0  0  0  0  0  0  0  0
   11.5176   39.3823   31.4411 C   0  0  0  0  0  0  0  0  0  0  0  0
   12.7495   39.0892   32.0755 O   0  0  0  0  0  0  0  0  0  0  0  0
   10.6036   38.1899   31.6659 C   0  0  0  0  0  0  0  0  0  0  0  0
   12.9401   37.6833   32.0276 C   0  0  0  0  0  0  0  0  0  0  0  0
    9.6377   38.0785   30.6474 O   0  0  0  0  0  0  0  0  0  0  0  0
   11.5804   37.0203   31.6937 C   0  0  0  0  0  0  0  0  0  0  0  0
   13.4902   37.2177   33.3237 N   0  0  0  0  0  0  0  0  0  0  0  0
   11.6117   36.3193   30.4680 O   0  0  0  0  0  0  0  0  0  0  0  0
   14.4759   36.3271   33.5731 C   0  0  0  0  0  0  0  0  0  0  0  0
   13.1176   37.6317   34.5688 C   0  0  0  0  0  0  0  0  0  0  0  0
   15.2064   35.6141   32.6742 N   0  0  0  0  0  0  0  0  0  0  0  0
   14.6729   36.2274   34.9184 C   0  0  0  0  0  0  0  0  0  0  0  0
   13.8221   37.0457   35.5783 N   0  0  0  0  0  0  0  0  0  0  0  0
   16.1637   34.7597   33.1549 C   0  0  0  0  0  0  0  0  0  0  0  0
   15.6514   35.3493   35.4133 C   0  0  0  0  0  0  0  0  0  0  0  0
   16.3791   34.6312   34.5044 N   0  0  0  0  0  0  0  0  0  0  0  0
   15.9001   35.1935   36.8091 N   0  0  0  0  0  0  0  0  0  0  0  0
    9.7848   45.0014   32.1604 H   0  0  0  0  0  0  0  0  0  0  0  0
   10.8333   46.9474   33.0224 H   0  0  0  0  0  0  0  0  0  0  0  0
   11.9010   45.6799   32.9437 H   0  0  0  0  0  0  0  0  0  0  0  0
    7.8240   44.9604   33.6998 H   0  0  0  0  0  0  0  0  0  0  0  0
    8.3760   46.6087   33.3658 H   0  0  0  0  0  0  0  0  0  0  0  0
    9.6534   48.4075   34.4637 H   0  0  0  0  0  0  0  0  0  0  0  0
    7.8825   48.4840   34.7224 H   0  0  0  0  0  0  0  0  0  0  0  0
   10.6953   50.3817   35.0871 H   0  0  0  0  0  0  0  0  0  0  0  0
    7.8551   50.8990   39.1170 H   0  0  0  0  0  0  0  0  0  0  0  0
   11.0808   52.2380   36.6466 H   0  0  0  0  0  0  0  0  0  0  0  0
    9.6741   52.4894   38.6652 H   0  0  0  0  0  0  0  0  0  0  0  0
    9.8312   40.7398   31.7558 H   0  0  0  0  0  0  0  0  0  0  0  0
   11.4002   41.5454   31.4747 H   0  0  0  0  0  0  0  0  0  0  0  0
   11.6990   39.5091   30.3489 H   0  0  0  0  0  0  0  0  0  0  0  0
   10.1131   38.2589   32.6664 H   0  0  0  0  0  0  0  0  0  0  0  0
   13.6800   37.4626   31.2265 H   0  0  0  0  0  0  0  0  0  0  0  0
    8.8953   38.6909   30.8891 H   0  0  0  0  0  0  0  0  0  0  0  0
   11.2830   36.3060   32.4929 H   0  0  0  0  0  0  0  0  0  0  0  0
   11.8859   36.9589   29.7593 H   0  0  0  0  0  0  0  0  0  0  0  0
   12.3360   38.3600   34.7441 H   0  0  0  0  0  0  0  0  0  0  0  0
   16.7572   34.1793   32.4621 H   0  0  0  0  0  0  0  0  0  0  0  0
   15.3528   35.7356   37.5140 H   0  0  0  0  0  0  0  0  0  0  0  0
   16.6362   34.5318   37.1416 H   0  0  0  0  0  0  0  0  0  0  0  0
  1  2  2  0
  1  3  1  0
  3  4  1  0
  4  5  1  0
  6  1  1  0
  7  6  1  0
  6  8  1  0
  8  9  1  0
  9 10  1  0
  9 11  2  0
 10 12  1  0
 12 13  1  0
 13 14  2  0
 15 13  1  0
 14 16  1  0
 14 17  1  0
 18 15  2  0
 16 19  1  0
 16 20  2  0
 17 21  2  0
 21 18  1  0
  4 22  2  0
  4 23  1  0
 24 23  1  0
 24 25  1  0
 25 26  1  0
 25 27  1  0
 26 28  1  0
 27 29  1  0
 27 30  1  0
 30 28  1  0
 28 31  1  0
 30 32  1  0
 33 31  1  0
 34 31  1  0
 35 33  2  0
 33 36  1  0
 37 34  2  0
 38 35  1  0
 36 39  2  0
 36 37  1  0
 40 38  2  0
 40 39  1  0
 39 41  1  0
  6 42  1  6
  7 43  1  0
  7 44  1  0
  8 45  1  0
  8 46  1  0
 12 47  1  0
 12 48  1  0
 15 49  1  0
 17 50  1  0
 18 51  1  0
 21 52  1  0
 24 53  1  0
 24 54  1  0
 25 55  1  0
 27 56  1  0
 28 57  1  0
 29 58  1  0
 30 59  1  0
 32 60  1  0
 34 61  1  0
 38 62  1  0
 41 63  1  0
 41 64  1  0
M  CHG  3   5  -1  16   1  19  -1
M  END
>  <EmbedRMS>  (589) 
0.08845290575136032

$$$$

     RDKit          3D

 64 67  0  0  0  0  0  0  0  0999 V2000
   10.2805   43.7761   33.8093 C   0  0  0  0  0  0  0  0  0  0  0  0
   11.4069   43.5912   34.3578 O   0  0  0  0  0  0  0  0  0  0  0  0
    9.3674   42.7307   33.7001 O   0  0  0  0  0  0  0  0  0  0  0  0
    9.8868   41.2342   34.2835 P   0  0  0  0  0  5  0  0  0  0  0  0
   10.3664   41.4697   35.8743 O   0  0  0  0  0  1  0  0  0  0  0  0
    9.9501   45.1180   33.2509 C   0  0  2  0  0  0  0  0  0  0  0  0
   11.0773   46.0241   33.4782 N   0  0  0  0  0  0  0  0  0  0  0  0
    8.6617   45.6946   33.8797 C   0  0  0  0  0  0  0  0  0  0  0  0
    7.4353   44.9676   33.4181 C   0  0  0  0  0  0  0  0  0  0  0  0
    7.0865   45.0019   32.0656 O   0  0  0  0  0  0  0  0  0  0  0  0
    6.7321   44.3295   34.2485 O   0  0  0  0  0  0  0  0  0  0  0  0
    5.9409   44.3345   31.5465 C   0  0  0  0  0  0  0  0  0  0  0  0
    5.9175   44.4638   30.0440 C   0  0  0  0  0  0  0  0  0  0  0  0
    7.0169   44.0659   29.2359 C   0  0  0  0  0  0  0  0  0  0  0  0
    4.7855   45.0326   29.4312 C   0  0  0  0  0  0  0  0  0  0  0  0
    8.1933   43.4582   29.8004 N   0  0  0  0  0  4  0  0  0  0  0  0
    6.9591   44.2816   27.8467 C   0  0  0  0  0  0  0  0  0  0  0  0
    4.7431   45.2225   28.0494 C   0  0  0  0  0  0  0  0  0  0  0  0
    8.0865   42.5257   30.8050 O   0  0  0  0  0  1  0  0  0  0  0  0
    9.3098   43.6473   29.2747 O   0  0  0  0  0  0  0  0  0  0  0  0
    5.8294   44.8525   27.2594 C   0  0  0  0  0  0  0  0  0  0  0  0
    8.8091   40.1914   34.2074 O   0  0  0  0  0  0  0  0  0  0  0  0
   11.2395   40.7908   33.3681 O   0  0  0  0  0  0  0  0  0  0  0  0
   10.9188   40.6881   31.9949 C   0  0  0  0  0  0  0  0  0  0  0  0
   11.5176   39.3798   31.4396 C   0  0  0  0  0  0  0  0  0  0  0  0
   12.7481   39.0860   32.0735 O   0  0  0  0  0  0  0  0  0  0  0  0
   10.6034   38.1888   31.6663 C   0  0  0  0  0  0  0  0  0  0  0  0
   12.9337   37.6795   32.0279 C   0  0  0  0  0  0  0  0  0  0  0  0
    9.6400   38.0776   30.6452 O   0  0  0  0  0  0  0  0  0  0  0  0
   11.5741   37.0152   31.7055 C   0  0  0  0  0  0  0  0  0  0  0  0
   13.4903   37.2177   33.3231 N   0  0  0  0  0  0  0  0  0  0  0  0
   11.6214   36.3375   30.4693 O   0  0  0  0  0  0  0  0  0  0  0  0
   14.4762   36.3272   33.5725 C   0  0  0  0  0  0  0  0  0  0  0  0
   13.1179   37.6316   34.5684 C   0  0  0  0  0  0  0  0  0  0  0  0
   15.2064   35.6138   32.6737 N   0  0  0  0  0  0  0  0  0  0  0  0
   14.6734   36.2277   34.9180 C   0  0  0  0  0  0  0  0  0  0  0  0
   13.8225   37.0459   35.5779 N   0  0  0  0  0  0  0  0  0  0  0  0
   16.1637   34.7594   33.1546 C   0  0  0  0  0  0  0  0  0  0  0  0
   15.6515   35.3494   35.4129 C   0  0  0  0  0  0  0  0  0  0  0  0
   16.3791   34.6311   34.5041 N   0  0  0  0  0  0  0  0  0  0  0  0
   15.9001   35.1935   36.8088 N   0  0  0  0  0  0  0  0  0  0  0  0
    9.8091   45.0058   32.1526 H   0  0  0  0  0  0  0  0  0  0  0  0
   11.1237   46.2810   34.4922 H   0  0  0  0  0  0  0  0  0  0  0  0
   10.9098   46.9069   32.9424 H   0  0  0  0  0  0  0  0  0  0  0  0
    8.5514   46.7599   33.5836 H   0  0  0  0  0  0  0  0  0  0  0  0
    8.7312   45.6621   34.9899 H   0  0  0  0  0  0  0  0  0  0  0  0
    5.9551   43.2604   31.8277 H   0  0  0  0  0  0  0  0  0  0  0  0
    5.0305   44.7823   32.0018 H   0  0  0  0  0  0  0  0  0  0  0  0
    3.9336   45.3412   30.0246 H   0  0  0  0  0  0  0  0  0  0  0  0
    7.7871   43.9902   27.2127 H   0  0  0  0  0  0  0  0  0  0  0  0
    3.8676   45.6641   27.5909 H   0  0  0  0  0  0  0  0  0  0  0  0
    5.7953   45.0049   26.1883 H   0  0  0  0  0  0  0  0  0  0  0  0
   11.3943   41.5443   31.4705 H   0  0  0  0  0  0  0  0  0  0  0  0
    9.8309   40.7299   31.7587 H   0  0  0  0  0  0  0  0  0  0  0  0
   11.6988   39.5044   30.3470 H   0  0  0  0  0  0  0  0  0  0  0  0
   10.1091   38.2627   32.6645 H   0  0  0  0  0  0  0  0  0  0  0  0
   13.6659   37.4540   31.2208 H   0  0  0  0  0  0  0  0  0  0  0  0
    8.8972   38.6907   30.8841 H   0  0  0  0  0  0  0  0  0  0  0  0
   11.2847   36.3058   32.5173 H   0  0  0  0  0  0  0  0  0  0  0  0
   10.8526   35.7094   30.4587 H   0  0  0  0  0  0  0  0  0  0  0  0
   12.3353   38.3587   34.7439 H   0  0  0  0  0  0  0  0  0  0  0  0
   16.7571   34.1788   32.4619 H   0  0  0  0  0  0  0  0  0  0  0  0
   15.3529   35.7359   37.5136 H   0  0  0  0  0  0  0  0  0  0  0  0
   16.6360   34.5317   37.1414 H   0  0  0  0  0  0  0  0  0  0  0  0
  1  2  2  0
  1  3  1  0
  3  4  1  0
  4  5  1  0
  6  1  1  0
  7  6  1  0
  6  8  1  0
  8  9  1  0
  9 10  1  0
  9 11  2  0
 10 12  1  0
 12 13  1  0
 13 14  2  0
 15 13  1  0
 14 16  1  0
 14 17  1  0
 18 15  2  0
 16 19  1  0
 16 20  2  0
 17 21  2  0
 21 18  1  0
  4 22  2  0
  4 23  1  0
 24 23  1  0
 24 25  1  0
 25 26  1  0
 25 27  1  0
 26 28  1  0
 27 29  1  0
 27 30  1  0
 30 28  1  0
 28 31  1  0
 30 32  1  0
 33 31  1  0
 34 31  1  0
 35 33  2  0
 33 36  1  0
 37 34  2  0
 38 35  1  0
 36 39  2  0
 36 37  1  0
 40 38  2  0
 40 39  1  0
 39 41  1  0
  6 42  1  6
  7 43  1  0
  7 44  1  0
  8 45  1  0
  8 46  1  0
 12 47  1  0
 12 48  1  0
 15 49  1  0
 17 50  1  0
 18 51  1  0
 21 52  1  0
 24 53  1  0
 24 54  1  0
 25 55  1  0
 27 56  1  0
 28 57  1  0
 29 58  1  0
 30 59  1  0
 32 60  1  0
 34 61  1  0
 38 62  1  0
 41 63  1  0
 41 64  1  0
M  CHG  3   5  -1  16   1  19  -1
M  END
>  <EmbedRMS>  (590) 
0.08938584771705169

$$$$

     RDKit          3D

 64 67  0  0  0  0  0  0  0  0999 V2000
   10.2884   43.7705   33.8002 C   0  0  0  0  0  0  0  0  0  0  0  0
   11.4105   43.5872   34.3576 O   0  0  0  0  0  0  0  0  0  0  0  0
    9.3684   42.7304   33.6975 O   0  0  0  0  0  0  0  0  0  0  0  0
    9.8850   41.2343   34.2845 P   0  0  0  0  0  5  0  0  0  0  0  0
   10.3651   41.4716   35.8749 O   0  0  0  0  0  1  0  0  0  0  0  0
    9.9524   45.1151   33.2550 C   0  0  2  0  0  0  0  0  0  0  0  0
   11.0689   46.0348   33.4807 N   0  0  0  0  0  0  0  0  0  0  0  0
    8.6592   45.6616   33.8941 C   0  0  0  0  0  0  0  0  0  0  0  0
    8.7935   45.8711   35.3741 C   0  0  0  0  0  0  0  0  0  0  0  0
    8.8429   44.7599   36.2229 O   0  0  0  0  0  0  0  0  0  0  0  0
    8.8760   47.0409   35.8385 O   0  0  0  0  0  0  0  0  0  0  0  0
    8.8859   44.8600   37.6440 C   0  0  0  0  0  0  0  0  0  0  0  0
    7.5485   45.3067   38.1859 C   0  0  0  0  0  0  0  0  0  0  0  0
    6.3361   44.6493   37.8427 C   0  0  0  0  0  0  0  0  0  0  0  0
    7.5049   46.4337   39.0270 C   0  0  0  0  0  0  0  0  0  0  0  0
    6.3162   43.4813   37.0010 N   0  0  0  0  0  4  0  0  0  0  0  0
    5.1188   45.1638   38.3259 C   0  0  0  0  0  0  0  0  0  0  0  0
    6.2875   46.9174   39.5075 C   0  0  0  0  0  0  0  0  0  0  0  0
    7.2717   42.5012   37.1351 O   0  0  0  0  0  1  0  0  0  0  0  0
    5.3435   43.2702   36.2472 O   0  0  0  0  0  0  0  0  0  0  0  0
    5.0966   46.2868   39.1538 C   0  0  0  0  0  0  0  0  0  0  0  0
    8.8070   40.1919   34.2095 O   0  0  0  0  0  0  0  0  0  0  0  0
   11.2366   40.7888   33.3690 O   0  0  0  0  0  0  0  0  0  0  0  0
   10.9154   40.6880   31.9956 C   0  0  0  0  0  0  0  0  0  0  0  0
   11.5260   39.3871   31.4367 C   0  0  0  0  0  0  0  0  0  0  0  0
   12.7492   39.0893   32.0819 O   0  0  0  0  0  0  0  0  0  0  0  0
   10.6123   38.1893   31.6462 C   0  0  0  0  0  0  0  0  0  0  0  0
   12.9373   37.6827   32.0301 C   0  0  0  0  0  0  0  0  0  0  0  0
    9.6150   38.0839   30.6538 O   0  0  0  0  0  0  0  0  0  0  0  0
   11.5793   37.0136   31.7014 C   0  0  0  0  0  0  0  0  0  0  0  0
   13.4906   37.2169   33.3242 N   0  0  0  0  0  0  0  0  0  0  0  0
   11.6216   36.3253   30.4725 O   0  0  0  0  0  0  0  0  0  0  0  0
   14.4763   36.3266   33.5731 C   0  0  0  0  0  0  0  0  0  0  0  0
   13.1181   37.6308   34.5694 C   0  0  0  0  0  0  0  0  0  0  0  0
   15.2065   35.6137   32.6740 N   0  0  0  0  0  0  0  0  0  0  0  0
   14.6735   36.2270   34.9185 C   0  0  0  0  0  0  0  0  0  0  0  0
   13.8229   37.0451   35.5787 N   0  0  0  0  0  0  0  0  0  0  0  0
   16.1639   34.7593   33.1547 C   0  0  0  0  0  0  0  0  0  0  0  0
   15.6519   35.3489   35.4132 C   0  0  0  0  0  0  0  0  0  0  0  0
   16.3794   34.6308   34.5042 N   0  0  0  0  0  0  0  0  0  0  0  0
   15.9006   35.1931   36.8090 N   0  0  0  0  0  0  0  0  0  0  0  0
    9.7816   45.0091   32.1600 H   0  0  0  0  0  0  0  0  0  0  0  0
   10.8044   46.9744   33.1043 H   0  0  0  0  0  0  0  0  0  0  0  0
   11.8798   45.7187   32.8992 H   0  0  0  0  0  0  0  0  0  0  0  0
    7.8202   44.9566   33.7074 H   0  0  0  0  0  0  0  0  0  0  0  0
    8.3863   46.6224   33.4052 H   0  0  0  0  0  0  0  0  0  0  0  0
    9.1432   43.8705   38.0736 H   0  0  0  0  0  0  0  0  0  0  0  0
    9.7040   45.5537   37.9385 H   0  0  0  0  0  0  0  0  0  0  0  0
    8.4158   46.9496   39.3044 H   0  0  0  0  0  0  0  0  0  0  0  0
    4.1824   44.6825   38.0730 H   0  0  0  0  0  0  0  0  0  0  0  0
    6.2674   47.7878   40.1506 H   0  0  0  0  0  0  0  0  0  0  0  0
    4.1533   46.6667   39.5246 H   0  0  0  0  0  0  0  0  0  0  0  0
    9.8253   40.7180   31.7585 H   0  0  0  0  0  0  0  0  0  0  0  0
   11.3829   41.5504   31.4741 H   0  0  0  0  0  0  0  0  0  0  0  0
   11.7289   39.5291   30.3506 H   0  0  0  0  0  0  0  0  0  0  0  0
   10.1138   38.2717   32.6380 H   0  0  0  0  0  0  0  0  0  0  0  0
   13.6725   37.4636   31.2240 H   0  0  0  0  0  0  0  0  0  0  0  0
   10.0536   38.1087   29.7639 H   0  0  0  0  0  0  0  0  0  0  0  0
   11.2646   36.3134   32.5107 H   0  0  0  0  0  0  0  0  0  0  0  0
   12.1549   35.5032   30.6315 H   0  0  0  0  0  0  0  0  0  0  0  0
   12.3362   38.3586   34.7450 H   0  0  0  0  0  0  0  0  0  0  0  0
   16.7573   34.1788   32.4619 H   0  0  0  0  0  0  0  0  0  0  0  0
   15.3533   35.7353   37.5139 H   0  0  0  0  0  0  0  0  0  0  0  0
   16.6366   34.5314   37.1415 H   0  0  0  0  0  0  0  0  0  0  0  0
  1  2  2  0
  1  3  1  0
  3  4  1  0
  4  5  1  0
  6  1  1  0
  7  6  1  0
  6  8  1  0
  8  9  1  0
  9 10  1  0
  9 11  2  0
 10 12  1  0
 12 13  1  0
 13 14  2  0
 15 13  1  0
 14 16  1  0
 14 17  1  0
 18 15  2  0
 16 19  1  0
 16 20  2  0
 17 21  2  0
 21 18  1  0
  4 22  2  0
  4 23  1  0
 24 23  1  0
 24 25  1  0
 25 26  1  0
 25 27  1  0
 26 28  1  0
 27 29  1  0
 27 30  1  0
 30 28  1  0
 28 31  1  0
 30 32  1  0
 33 31  1  0
 34 31  1  0
 35 33  2  0
 33 36  1  0
 37 34  2  0
 38 35  1  0
 36 39  2  0
 36 37  1  0
 40 38  2  0
 40 39  1  0
 39 41  1  0
  6 42  1  6
  7 43  1  0
  7 44  1  0
  8 45  1  0
  8 46  1  0
 12 47  1  0
 12 48  1  0
 15 49  1  0
 17 50  1  0
 18 51  1  0
 21 52  1  0
 24 53  1  0
 24 54  1  0
 25 55  1  0
 27 56  1  0
 28 57  1  0
 29 58  1  0
 30 59  1  0
 32 60  1  0
 34 61  1  0
 38 62  1  0
 41 63  1  0
 41 64  1  0
M  CHG  3   5  -1  16   1  19  -1
M  END
>  <EmbedRMS>  (591) 
0.08795729641159161

$$$$

     RDKit          3D

 64 67  0  0  0  0  0  0  0  0999 V2000
   10.2862   43.7718   33.8055 C   0  0  0  0  0  0  0  0  0  0  0  0
   11.4084   43.5877   34.3625 O   0  0  0  0  0  0  0  0  0  0  0  0
    9.3678   42.7307   33.6991 O   0  0  0  0  0  0  0  0  0  0  0  0
    9.8854   41.2339   34.2842 P   0  0  0  0  0  5  0  0  0  0  0  0
   10.3650   41.4699   35.8749 O   0  0  0  0  0  1  0  0  0  0  0  0
    9.9532   45.1155   33.2551 C   0  0  2  0  0  0  0  0  0  0  0  0
   11.0711   46.0346   33.4737 N   0  0  0  0  0  0  0  0  0  0  0  0
    8.6582   45.6714   33.8866 C   0  0  0  0  0  0  0  0  0  0  0  0
    8.7802   45.8918   35.3778 C   0  0  0  0  0  0  0  0  0  0  0  0
    8.9378   47.1601   35.9531 O   0  0  0  0  0  0  0  0  0  0  0  0
    8.7524   44.8906   36.1413 O   0  0  0  0  0  0  0  0  0  0  0  0
    8.8662   48.3901   35.2384 C   0  0  0  0  0  0  0  0  0  0  0  0
    9.0731   49.5344   36.1959 C   0  0  0  0  0  0  0  0  0  0  0  0
    8.0091   50.0899   36.9573 C   0  0  0  0  0  0  0  0  0  0  0  0
   10.3695   50.0612   36.3396 C   0  0  0  0  0  0  0  0  0  0  0  0
    6.6709   49.5633   36.8986 N   0  0  0  0  0  4  0  0  0  0  0  0
    8.2687   51.1927   37.7905 C   0  0  0  0  0  0  0  0  0  0  0  0
   10.6079   51.1445   37.1861 C   0  0  0  0  0  0  0  0  0  0  0  0
    5.5960   50.3953   37.1134 O   0  0  0  0  0  1  0  0  0  0  0  0
    6.4725   48.3328   36.8352 O   0  0  0  0  0  0  0  0  0  0  0  0
    9.5583   51.7141   37.9040 C   0  0  0  0  0  0  0  0  0  0  0  0
    8.8080   40.1910   34.2078 O   0  0  0  0  0  0  0  0  0  0  0  0
   11.2382   40.7902   33.3697 O   0  0  0  0  0  0  0  0  0  0  0  0
   10.9190   40.6904   31.9961 C   0  0  0  0  0  0  0  0  0  0  0  0
   11.5176   39.3823   31.4411 C   0  0  0  0  0  0  0  0  0  0  0  0
   12.7495   39.0892   32.0755 O   0  0  0  0  0  0  0  0  0  0  0  0
   10.6036   38.1899   31.6659 C   0  0  0  0  0  0  0  0  0  0  0  0
   12.9401   37.6833   32.0276 C   0  0  0  0  0  0  0  0  0  0  0  0
    9.6377   38.0785   30.6474 O   0  0  0  0  0  0  0  0  0  0  0  0
   11.5804   37.0203   31.6937 C   0  0  0  0  0  0  0  0  0  0  0  0
   13.4902   37.2177   33.3237 N   0  0  0  0  0  0  0  0  0  0  0  0
   11.6117   36.3193   30.4680 O   0  0  0  0  0  0  0  0  0  0  0  0
   14.4759   36.3271   33.5731 C   0  0  0  0  0  0  0  0  0  0  0  0
   13.1176   37.6317   34.5688 C   0  0  0  0  0  0  0  0  0  0  0  0
   15.2064   35.6141   32.6742 N   0  0  0  0  0  0  0  0  0  0  0  0
   14.6729   36.2274   34.9184 C   0  0  0  0  0  0  0  0  0  0  0  0
   13.8221   37.0457   35.5783 N   0  0  0  0  0  0  0  0  0  0  0  0
   16.1637   34.7597   33.1549 C   0  0  0  0  0  0  0  0  0  0  0  0
   15.6514   35.3493   35.4133 C   0  0  0  0  0  0  0  0  0  0  0  0
   16.3791   34.6312   34.5044 N   0  0  0  0  0  0  0  0  0  0  0  0
   15.9001   35.1935   36.8091 N   0  0  0  0  0  0  0  0  0  0  0  0
    9.7846   45.0015   32.1604 H   0  0  0  0  0  0  0  0  0  0  0  0
   10.8337   46.9471   33.0218 H   0  0  0  0  0  0  0  0  0  0  0  0
   11.9012   45.6795   32.9441 H   0  0  0  0  0  0  0  0  0  0  0  0
    8.3753   46.6084   33.3662 H   0  0  0  0  0  0  0  0  0  0  0  0
    7.8241   44.9600   33.7007 H   0  0  0  0  0  0  0  0  0  0  0  0
    9.6460   48.4108   34.4488 H   0  0  0  0  0  0  0  0  0  0  0  0
    7.8820   48.4872   34.7327 H   0  0  0  0  0  0  0  0  0  0  0  0
   11.1986   49.6385   35.7852 H   0  0  0  0  0  0  0  0  0  0  0  0
    7.4724   51.6382   38.3733 H   0  0  0  0  0  0  0  0  0  0  0  0
   11.6086   51.5459   37.2820 H   0  0  0  0  0  0  0  0  0  0  0  0
    9.7453   52.5567   38.5572 H   0  0  0  0  0  0  0  0  0  0  0  0
    9.8312   40.7398   31.7558 H   0  0  0  0  0  0  0  0  0  0  0  0
   11.4002   41.5454   31.4747 H   0  0  0  0  0  0  0  0  0  0  0  0
   11.6990   39.5091   30.3488 H   0  0  0  0  0  0  0  0  0  0  0  0
   10.1131   38.2589   32.6664 H   0  0  0  0  0  0  0  0  0  0  0  0
   13.6800   37.4626   31.2265 H   0  0  0  0  0  0  0  0  0  0  0  0
    8.8953   38.6909   30.8891 H   0  0  0  0  0  0  0  0  0  0  0  0
   11.2830   36.3060   32.4929 H   0  0  0  0  0  0  0  0  0  0  0  0
   11.8859   36.9589   29.7593 H   0  0  0  0  0  0  0  0  0  0  0  0
   12.3360   38.3600   34.7441 H   0  0  0  0  0  0  0  0  0  0  0  0
   16.7572   34.1793   32.4621 H   0  0  0  0  0  0  0  0  0  0  0  0
   15.3528   35.7356   37.5140 H   0  0  0  0  0  0  0  0  0  0  0  0
   16.6362   34.5318   37.1416 H   0  0  0  0  0  0  0  0  0  0  0  0
  1  2  2  0
  1  3  1  0
  3  4  1  0
  4  5  1  0
  6  1  1  0
  7  6  1  0
  6  8  1  0
  8  9  1  0
  9 10  1  0
  9 11  2  0
 10 12  1  0
 12 13  1  0
 13 14  2  0
 15 13  1  0
 14 16  1  0
 14 17  1  0
 18 15  2  0
 16 19  1  0
 16 20  2  0
 17 21  2  0
 21 18  1  0
  4 22  2  0
  4 23  1  0
 24 23  1  0
 24 25  1  0
 25 26  1  0
 25 27  1  0
 26 28  1  0
 27 29  1  0
 27 30  1  0
 30 28  1  0
 28 31  1  0
 30 32  1  0
 33 31  1  0
 34 31  1  0
 35 33  2  0
 33 36  1  0
 37 34  2  0
 38 35  1  0
 36 39  2  0
 36 37  1  0
 40 38  2  0
 40 39  1  0
 39 41  1  0
  6 42  1  6
  7 43  1  0
  7 44  1  0
  8 45  1  0
  8 46  1  0
 12 47  1  0
 12 48  1  0
 15 49  1  0
 17 50  1  0
 18 51  1  0
 21 52  1  0
 24 53  1  0
 24 54  1  0
 25 55  1  0
 27 56  1  0
 28 57  1  0
 29 58  1  0
 30 59  1  0
 32 60  1  0
 34 61  1  0
 38 62  1  0
 41 63  1  0
 41 64  1  0
M  CHG  3   5  -1  16   1  19  -1
M  END
>  <EmbedRMS>  (592) 
0.08845391994687017

$$$$

     RDKit          3D

 64 67  0  0  0  0  0  0  0  0999 V2000
   10.2855   43.7718   33.8045 C   0  0  0  0  0  0  0  0  0  0  0  0
   11.4124   43.5850   34.3498 O   0  0  0  0  0  0  0  0  0  0  0  0
    9.3658   42.7316   33.7024 O   0  0  0  0  0  0  0  0  0  0  0  0
    9.8848   41.2344   34.2852 P   0  0  0  0  0  5  0  0  0  0  0  0
   10.3660   41.4687   35.8750 O   0  0  0  0  0  1  0  0  0  0  0  0
    9.9609   45.1098   33.2406 C   0  0  2  0  0  0  0  0  0  0  0  0
   11.0644   46.0393   33.4916 N   0  0  0  0  0  0  0  0  0  0  0  0
    8.6108   45.6567   33.7619 C   0  0  0  0  0  0  0  0  0  0  0  0
    8.5841   45.9272   35.2411 C   0  0  0  0  0  0  0  0  0  0  0  0
    9.0823   44.9761   36.1363 O   0  0  0  0  0  0  0  0  0  0  0  0
    8.0625   46.9934   35.6677 O   0  0  0  0  0  0  0  0  0  0  0  0
    8.9441   45.0937   37.5480 C   0  0  0  0  0  0  0  0  0  0  0  0
    9.7304   43.9973   38.2220 C   0  0  0  0  0  0  0  0  0  0  0  0
   11.1403   43.8720   38.0751 C   0  0  0  0  0  0  0  0  0  0  0  0
    9.0290   43.0282   38.9639 C   0  0  0  0  0  0  0  0  0  0  0  0
   11.9207   44.8217   37.3226 N   0  0  0  0  0  4  0  0  0  0  0  0
   11.7923   42.7723   38.6650 C   0  0  0  0  0  0  0  0  0  0  0  0
    9.6993   41.9538   39.5489 C   0  0  0  0  0  0  0  0  0  0  0  0
   11.6370   46.1661   37.3711 O   0  0  0  0  0  1  0  0  0  0  0  0
   12.9741   44.4569   36.7601 O   0  0  0  0  0  0  0  0  0  0  0  0
   11.0774   41.8246   39.3975 C   0  0  0  0  0  0  0  0  0  0  0  0
    8.8075   40.1914   34.2095 O   0  0  0  0  0  0  0  0  0  0  0  0
   11.2365   40.7905   33.3686 O   0  0  0  0  0  0  0  0  0  0  0  0
   10.9147   40.6884   31.9956 C   0  0  0  0  0  0  0  0  0  0  0  0
   11.5258   39.3873   31.4369 C   0  0  0  0  0  0  0  0  0  0  0  0
   12.7489   39.0895   32.0822 O   0  0  0  0  0  0  0  0  0  0  0  0
   10.6122   38.1894   31.6463 C   0  0  0  0  0  0  0  0  0  0  0  0
   12.9373   37.6829   32.0302 C   0  0  0  0  0  0  0  0  0  0  0  0
    9.6150   38.0839   30.6538 O   0  0  0  0  0  0  0  0  0  0  0  0
   11.5793   37.0138   31.7015 C   0  0  0  0  0  0  0  0  0  0  0  0
   13.4906   37.2171   33.3243 N   0  0  0  0  0  0  0  0  0  0  0  0
   11.6217   36.3254   30.4726 O   0  0  0  0  0  0  0  0  0  0  0  0
   14.4762   36.3267   33.5731 C   0  0  0  0  0  0  0  0  0  0  0  0
   13.1182   37.6310   34.5695 C   0  0  0  0  0  0  0  0  0  0  0  0
   15.2065   35.6138   32.6740 N   0  0  0  0  0  0  0  0  0  0  0  0
   14.6735   36.2270   34.9185 C   0  0  0  0  0  0  0  0  0  0  0  0
   13.8229   37.0452   35.5788 N   0  0  0  0  0  0  0  0  0  0  0  0
   16.1638   34.7593   33.1547 C   0  0  0  0  0  0  0  0  0  0  0  0
   15.6518   35.3490   35.4132 C   0  0  0  0  0  0  0  0  0  0  0  0
   16.3794   34.6308   34.5042 N   0  0  0  0  0  0  0  0  0  0  0  0
   15.9006   35.1931   36.8090 N   0  0  0  0  0  0  0  0  0  0  0  0
    9.8666   44.9782   32.1402 H   0  0  0  0  0  0  0  0  0  0  0  0
   10.8568   46.9424   33.0065 H   0  0  0  0  0  0  0  0  0  0  0  0
   11.1343   46.2459   34.5146 H   0  0  0  0  0  0  0  0  0  0  0  0
    7.8007   44.9346   33.5230 H   0  0  0  0  0  0  0  0  0  0  0  0
    8.3757   46.5957   33.2145 H   0  0  0  0  0  0  0  0  0  0  0  0
    9.2927   46.0860   37.8998 H   0  0  0  0  0  0  0  0  0  0  0  0
    7.8643   45.0287   37.8052 H   0  0  0  0  0  0  0  0  0  0  0  0
    7.9546   43.0953   39.0827 H   0  0  0  0  0  0  0  0  0  0  0  0
   12.8639   42.6529   38.5660 H   0  0  0  0  0  0  0  0  0  0  0  0
    9.1466   41.2152   40.1150 H   0  0  0  0  0  0  0  0  0  0  0  0
   11.5943   40.9874   39.8486 H   0  0  0  0  0  0  0  0  0  0  0  0
    9.8245   40.7179   31.7590 H   0  0  0  0  0  0  0  0  0  0  0  0
   11.3816   41.5507   31.4733 H   0  0  0  0  0  0  0  0  0  0  0  0
   11.7287   39.5292   30.3509 H   0  0  0  0  0  0  0  0  0  0  0  0
   10.1137   38.2718   32.6381 H   0  0  0  0  0  0  0  0  0  0  0  0
   13.6725   37.4640   31.2241 H   0  0  0  0  0  0  0  0  0  0  0  0
   10.0537   38.1087   29.7639 H   0  0  0  0  0  0  0  0  0  0  0  0
   11.2646   36.3135   32.5108 H   0  0  0  0  0  0  0  0  0  0  0  0
   12.1551   35.5034   30.6316 H   0  0  0  0  0  0  0  0  0  0  0  0
   12.3363   38.3589   34.7452 H   0  0  0  0  0  0  0  0  0  0  0  0
   16.7572   34.1789   32.4619 H   0  0  0  0  0  0  0  0  0  0  0  0
   16.6366   34.5314   37.1415 H   0  0  0  0  0  0  0  0  0  0  0  0
   15.3533   35.7354   37.5139 H   0  0  0  0  0  0  0  0  0  0  0  0
  1  2  2  0
  1  3  1  0
  3  4  1  0
  4  5  1  0
  6  1  1  0
  7  6  1  0
  6  8  1  0
  8  9  1  0
  9 10  1  0
  9 11  2  0
 10 12  1  0
 12 13  1  0
 13 14  2  0
 15 13  1  0
 14 16  1  0
 14 17  1  0
 18 15  2  0
 16 19  1  0
 16 20  2  0
 17 21  2  0
 21 18  1  0
  4 22  2  0
  4 23  1  0
 24 23  1  0
 24 25  1  0
 25 26  1  0
 25 27  1  0
 26 28  1  0
 27 29  1  0
 27 30  1  0
 30 28  1  0
 28 31  1  0
 30 32  1  0
 33 31  1  0
 34 31  1  0
 35 33  2  0
 33 36  1  0
 37 34  2  0
 38 35  1  0
 36 39  2  0
 36 37  1  0
 40 38  2  0
 40 39  1  0
 39 41  1  0
  6 42  1  6
  7 43  1  0
  7 44  1  0
  8 45  1  0
  8 46  1  0
 12 47  1  0
 12 48  1  0
 15 49  1  0
 17 50  1  0
 18 51  1  0
 21 52  1  0
 24 53  1  0
 24 54  1  0
 25 55  1  0
 27 56  1  0
 28 57  1  0
 29 58  1  0
 30 59  1  0
 32 60  1  0
 34 61  1  0
 38 62  1  0
 41 63  1  0
 41 64  1  0
M  CHG  3   5  -1  16   1  19  -1
M  END
>  <EmbedRMS>  (593) 
0.0878194502311696

$$$$

     RDKit          3D

 64 67  0  0  0  0  0  0  0  0999 V2000
   10.2845   43.7742   33.8071 C   0  0  0  0  0  0  0  0  0  0  0  0
   11.4069   43.5904   34.3638 O   0  0  0  0  0  0  0  0  0  0  0  0
    9.3683   42.7308   33.6987 O   0  0  0  0  0  0  0  0  0  0  0  0
    9.8864   41.2339   34.2832 P   0  0  0  0  0  5  0  0  0  0  0  0
   10.3660   41.4694   35.8740 O   0  0  0  0  0  1  0  0  0  0  0  0
    9.9499   45.1156   33.2535 C   0  0  2  0  0  0  0  0  0  0  0  0
   11.0749   46.0281   33.4738 N   0  0  0  0  0  0  0  0  0  0  0  0
    8.6764   45.6531   33.9362 C   0  0  0  0  0  0  0  0  0  0  0  0
    8.1821   46.9019   33.2737 C   0  0  0  0  0  0  0  0  0  0  0  0
    7.6724   46.8324   31.9745 O   0  0  0  0  0  0  0  0  0  0  0  0
    8.2486   48.0052   33.8815 O   0  0  0  0  0  0  0  0  0  0  0  0
    7.2343   47.9811   31.2578 C   0  0  0  0  0  0  0  0  0  0  0  0
    6.8020   47.5710   29.8751 C   0  0  0  0  0  0  0  0  0  0  0  0
    7.7201   47.4559   28.7977 C   0  0  0  0  0  0  0  0  0  0  0  0
    5.4423   47.2875   29.6541 C   0  0  0  0  0  0  0  0  0  0  0  0
    9.1309   47.6790   28.9755 N   0  0  0  0  0  4  0  0  0  0  0  0
    7.2362   47.1166   27.5206 C   0  0  0  0  0  0  0  0  0  0  0  0
    4.9860   46.9361   28.3830 C   0  0  0  0  0  0  0  0  0  0  0  0
    9.7788   47.2097   30.0945 O   0  0  0  0  0  1  0  0  0  0  0  0
    9.8133   48.1440   28.0391 O   0  0  0  0  0  0  0  0  0  0  0  0
    5.8799   46.8582   27.3169 C   0  0  0  0  0  0  0  0  0  0  0  0
    8.8088   40.1911   34.2072 O   0  0  0  0  0  0  0  0  0  0  0  0
   11.2391   40.7900   33.3683 O   0  0  0  0  0  0  0  0  0  0  0  0
   10.9199   40.6895   31.9945 C   0  0  0  0  0  0  0  0  0  0  0  0
   11.5173   39.3800   31.4395 C   0  0  0  0  0  0  0  0  0  0  0  0
   12.7480   39.0860   32.0732 O   0  0  0  0  0  0  0  0  0  0  0  0
   10.6032   38.1891   31.6666 C   0  0  0  0  0  0  0  0  0  0  0  0
   12.9336   37.6795   32.0279 C   0  0  0  0  0  0  0  0  0  0  0  0
    9.6397   38.0777   30.6456 O   0  0  0  0  0  0  0  0  0  0  0  0
   11.5739   37.0154   31.7057 C   0  0  0  0  0  0  0  0  0  0  0  0
   13.4903   37.2177   33.3230 N   0  0  0  0  0  0  0  0  0  0  0  0
   11.6210   36.3376   30.4695 O   0  0  0  0  0  0  0  0  0  0  0  0
   14.4761   36.3273   33.5725 C   0  0  0  0  0  0  0  0  0  0  0  0
   13.1179   37.6316   34.5684 C   0  0  0  0  0  0  0  0  0  0  0  0
   15.2063   35.6139   32.6737 N   0  0  0  0  0  0  0  0  0  0  0  0
   14.6734   36.2277   34.9179 C   0  0  0  0  0  0  0  0  0  0  0  0
   13.8225   37.0459   35.5779 N   0  0  0  0  0  0  0  0  0  0  0  0
   16.1636   34.7594   33.1546 C   0  0  0  0  0  0  0  0  0  0  0  0
   15.6515   35.3494   35.4129 C   0  0  0  0  0  0  0  0  0  0  0  0
   16.3791   34.6311   34.5041 N   0  0  0  0  0  0  0  0  0  0  0  0
   15.9001   35.1935   36.8088 N   0  0  0  0  0  0  0  0  0  0  0  0
    9.7683   45.0017   32.1605 H   0  0  0  0  0  0  0  0  0  0  0  0
   10.8418   46.9578   33.0562 H   0  0  0  0  0  0  0  0  0  0  0  0
   11.8936   45.6817   32.9211 H   0  0  0  0  0  0  0  0  0  0  0  0
    7.8638   44.8969   33.8744 H   0  0  0  0  0  0  0  0  0  0  0  0
    8.8777   45.8469   35.0134 H   0  0  0  0  0  0  0  0  0  0  0  0
    8.0489   48.7348   31.2013 H   0  0  0  0  0  0  0  0  0  0  0  0
    6.3896   48.4562   31.8038 H   0  0  0  0  0  0  0  0  0  0  0  0
    4.7294   47.3491   30.4674 H   0  0  0  0  0  0  0  0  0  0  0  0
    7.9163   47.0307   26.6826 H   0  0  0  0  0  0  0  0  0  0  0  0
    3.9358   46.7277   28.2239 H   0  0  0  0  0  0  0  0  0  0  0  0
    5.5229   46.5885   26.3313 H   0  0  0  0  0  0  0  0  0  0  0  0
   11.4018   41.5436   31.4725 H   0  0  0  0  0  0  0  0  0  0  0  0
    9.8321   40.7399   31.7544 H   0  0  0  0  0  0  0  0  0  0  0  0
   11.6984   39.5041   30.3468 H   0  0  0  0  0  0  0  0  0  0  0  0
   10.1091   38.2633   32.6649 H   0  0  0  0  0  0  0  0  0  0  0  0
   13.6656   37.4538   31.2207 H   0  0  0  0  0  0  0  0  0  0  0  0
    8.8967   38.6903   30.8850 H   0  0  0  0  0  0  0  0  0  0  0  0
   11.2845   36.3060   32.5175 H   0  0  0  0  0  0  0  0  0  0  0  0
   10.8523   35.7094   30.4590 H   0  0  0  0  0  0  0  0  0  0  0  0
   12.3353   38.3588   34.7439 H   0  0  0  0  0  0  0  0  0  0  0  0
   16.7570   34.1788   32.4619 H   0  0  0  0  0  0  0  0  0  0  0  0
   15.3529   35.7359   37.5136 H   0  0  0  0  0  0  0  0  0  0  0  0
   16.6360   34.5317   37.1414 H   0  0  0  0  0  0  0  0  0  0  0  0
  1  2  2  0
  1  3  1  0
  3  4  1  0
  4  5  1  0
  6  1  1  0
  7  6  1  0
  6  8  1  0
  8  9  1  0
  9 10  1  0
  9 11  2  0
 10 12  1  0
 12 13  1  0
 13 14  2  0
 15 13  1  0
 14 16  1  0
 14 17  1  0
 18 15  2  0
 16 19  1  0
 16 20  2  0
 17 21  2  0
 21 18  1  0
  4 22  2  0
  4 23  1  0
 24 23  1  0
 24 25  1  0
 25 26  1  0
 25 27  1  0
 26 28  1  0
 27 29  1  0
 27 30  1  0
 30 28  1  0
 28 31  1  0
 30 32  1  0
 33 31  1  0
 34 31  1  0
 35 33  2  0
 33 36  1  0
 37 34  2  0
 38 35  1  0
 36 39  2  0
 36 37  1  0
 40 38  2  0
 40 39  1  0
 39 41  1  0
  6 42  1  6
  7 43  1  0
  7 44  1  0
  8 45  1  0
  8 46  1  0
 12 47  1  0
 12 48  1  0
 15 49  1  0
 17 50  1  0
 18 51  1  0
 21 52  1  0
 24 53  1  0
 24 54  1  0
 25 55  1  0
 27 56  1  0
 28 57  1  0
 29 58  1  0
 30 59  1  0
 32 60  1  0
 34 61  1  0
 38 62  1  0
 41 63  1  0
 41 64  1  0
M  CHG  3   5  -1  16   1  19  -1
M  END
>  <EmbedRMS>  (594) 
0.08949452668611352

$$$$

     RDKit          3D

 64 67  0  0  0  0  0  0  0  0999 V2000
   10.2829   43.7755   33.8074 C   0  0  0  0  0  0  0  0  0  0  0  0
   11.4086   43.5915   34.3576 O   0  0  0  0  0  0  0  0  0  0  0  0
    9.3666   42.7320   33.7014 O   0  0  0  0  0  0  0  0  0  0  0  0
    9.8859   41.2347   34.2841 P   0  0  0  0  0  5  0  0  0  0  0  0
   10.3669   41.4696   35.8745 O   0  0  0  0  0  1  0  0  0  0  0  0
    9.9535   45.1117   33.2435 C   0  0  2  0  0  0  0  0  0  0  0  0
   11.0724   46.0265   33.4849 N   0  0  0  0  0  0  0  0  0  0  0  0
    8.6398   45.6432   33.8551 C   0  0  0  0  0  0  0  0  0  0  0  0
    8.2375   46.9533   33.2516 C   0  0  0  0  0  0  0  0  0  0  0  0
    8.3821   48.1273   33.9962 O   0  0  0  0  0  0  0  0  0  0  0  0
    7.7877   46.9889   32.0736 O   0  0  0  0  0  0  0  0  0  0  0  0
    8.0285   49.4087   33.4866 C   0  0  0  0  0  0  0  0  0  0  0  0
    8.2479   50.4506   34.5526 C   0  0  0  0  0  0  0  0  0  0  0  0
    9.5070   51.0772   34.7567 C   0  0  0  0  0  0  0  0  0  0  0  0
    7.1625   50.8054   35.3740 C   0  0  0  0  0  0  0  0  0  0  0  0
   10.6709   50.7209   33.9893 N   0  0  0  0  0  4  0  0  0  0  0  0
    9.6205   52.0805   35.7356 C   0  0  0  0  0  0  0  0  0  0  0  0
    7.3019   51.7910   36.3518 C   0  0  0  0  0  0  0  0  0  0  0  0
   11.6457   51.6607   33.7444 O   0  0  0  0  0  1  0  0  0  0  0  0
   10.9008   49.5295   33.6987 O   0  0  0  0  0  0  0  0  0  0  0  0
    8.5262   52.4329   36.5269 C   0  0  0  0  0  0  0  0  0  0  0  0
    8.8085   40.1917   34.2087 O   0  0  0  0  0  0  0  0  0  0  0  0
   11.2373   40.7909   33.3676 O   0  0  0  0  0  0  0  0  0  0  0  0
   10.9151   40.6883   31.9947 C   0  0  0  0  0  0  0  0  0  0  0  0
   11.5260   39.3871   31.4365 C   0  0  0  0  0  0  0  0  0  0  0  0
   12.7490   39.0894   32.0820 O   0  0  0  0  0  0  0  0  0  0  0  0
   10.6122   38.1893   31.6461 C   0  0  0  0  0  0  0  0  0  0  0  0
   12.9373   37.6828   32.0301 C   0  0  0  0  0  0  0  0  0  0  0  0
    9.6150   38.0838   30.6538 O   0  0  0  0  0  0  0  0  0  0  0  0
   11.5793   37.0137   31.7014 C   0  0  0  0  0  0  0  0  0  0  0  0
   13.4906   37.2170   33.3242 N   0  0  0  0  0  0  0  0  0  0  0  0
   11.6217   36.3253   30.4725 O   0  0  0  0  0  0  0  0  0  0  0  0
   14.4763   36.3266   33.5731 C   0  0  0  0  0  0  0  0  0  0  0  0
   13.1182   37.6308   34.5694 C   0  0  0  0  0  0  0  0  0  0  0  0
   15.2065   35.6137   32.6740 N   0  0  0  0  0  0  0  0  0  0  0  0
   14.6735   36.2270   34.9185 C   0  0  0  0  0  0  0  0  0  0  0  0
   13.8229   37.0451   35.5787 N   0  0  0  0  0  0  0  0  0  0  0  0
   16.1639   34.7593   33.1547 C   0  0  0  0  0  0  0  0  0  0  0  0
   15.6519   35.3489   35.4132 C   0  0  0  0  0  0  0  0  0  0  0  0
   16.3794   34.6308   34.5042 N   0  0  0  0  0  0  0  0  0  0  0  0
   15.9006   35.1931   36.8090 N   0  0  0  0  0  0  0  0  0  0  0  0
    9.8205   44.9853   32.1458 H   0  0  0  0  0  0  0  0  0  0  0  0
   10.9497   46.8757   32.8876 H   0  0  0  0  0  0  0  0  0  0  0  0
   11.0671   46.3390   34.4840 H   0  0  0  0  0  0  0  0  0  0  0  0
    7.8198   44.9133   33.6780 H   0  0  0  0  0  0  0  0  0  0  0  0
    8.7511   45.7615   34.9553 H   0  0  0  0  0  0  0  0  0  0  0  0
    6.9612   49.3996   33.1729 H   0  0  0  0  0  0  0  0  0  0  0  0
    8.6286   49.6418   32.5811 H   0  0  0  0  0  0  0  0  0  0  0  0
    6.1997   50.3247   35.2497 H   0  0  0  0  0  0  0  0  0  0  0  0
   10.5675   52.5778   35.9029 H   0  0  0  0  0  0  0  0  0  0  0  0
    6.4569   52.0607   36.9722 H   0  0  0  0  0  0  0  0  0  0  0  0
    8.6307   53.1996   37.2837 H   0  0  0  0  0  0  0  0  0  0  0  0
    9.8248   40.7178   31.7583 H   0  0  0  0  0  0  0  0  0  0  0  0
   11.3819   41.5504   31.4719 H   0  0  0  0  0  0  0  0  0  0  0  0
   11.7291   39.5286   30.3504 H   0  0  0  0  0  0  0  0  0  0  0  0
   10.1139   38.2719   32.6380 H   0  0  0  0  0  0  0  0  0  0  0  0
   13.6725   37.4637   31.2240 H   0  0  0  0  0  0  0  0  0  0  0  0
   10.0536   38.1085   29.7639 H   0  0  0  0  0  0  0  0  0  0  0  0
   11.2646   36.3134   32.5107 H   0  0  0  0  0  0  0  0  0  0  0  0
   12.1550   35.5033   30.6315 H   0  0  0  0  0  0  0  0  0  0  0  0
   12.3362   38.3586   34.7451 H   0  0  0  0  0  0  0  0  0  0  0  0
   16.7573   34.1788   32.4619 H   0  0  0  0  0  0  0  0  0  0  0  0
   16.6366   34.5314   37.1415 H   0  0  0  0  0  0  0  0  0  0  0  0
   15.3533   35.7353   37.5139 H   0  0  0  0  0  0  0  0  0  0  0  0
  1  2  2  0
  1  3  1  0
  3  4  1  0
  4  5  1  0
  6  1  1  0
  7  6  1  0
  6  8  1  0
  8  9  1  0
  9 10  1  0
  9 11  2  0
 10 12  1  0
 12 13  1  0
 13 14  2  0
 15 13  1  0
 14 16  1  0
 14 17  1  0
 18 15  2  0
 16 19  1  0
 16 20  2  0
 17 21  2  0
 21 18  1  0
  4 22  2  0
  4 23  1  0
 24 23  1  0
 24 25  1  0
 25 26  1  0
 25 27  1  0
 26 28  1  0
 27 29  1  0
 27 30  1  0
 30 28  1  0
 28 31  1  0
 30 32  1  0
 33 31  1  0
 34 31  1  0
 35 33  2  0
 33 36  1  0
 37 34  2  0
 38 35  1  0
 36 39  2  0
 36 37  1  0
 40 38  2  0
 40 39  1  0
 39 41  1  0
  6 42  1  6
  7 43  1  0
  7 44  1  0
  8 45  1  0
  8 46  1  0
 12 47  1  0
 12 48  1  0
 15 49  1  0
 17 50  1  0
 18 51  1  0
 21 52  1  0
 24 53  1  0
 24 54  1  0
 25 55  1  0
 27 56  1  0
 28 57  1  0
 29 58  1  0
 30 59  1  0
 32 60  1  0
 34 61  1  0
 38 62  1  0
 41 63  1  0
 41 64  1  0
M  CHG  3   5  -1  16   1  19  -1
M  END
>  <EmbedRMS>  (595) 
0.08761544213417843

$$$$

     RDKit          3D

 64 67  0  0  0  0  0  0  0  0999 V2000
   10.2827   43.7756   33.8085 C   0  0  0  0  0  0  0  0  0  0  0  0
   11.4084   43.5915   34.3585 O   0  0  0  0  0  0  0  0  0  0  0  0
    9.3664   42.7322   33.7023 O   0  0  0  0  0  0  0  0  0  0  0  0
    9.8856   41.2349   34.2849 P   0  0  0  0  0  5  0  0  0  0  0  0
   10.3665   41.4696   35.8752 O   0  0  0  0  0  1  0  0  0  0  0  0
    9.9554   45.1104   33.2400 C   0  0  2  0  0  0  0  0  0  0  0  0
   11.0714   46.0278   33.4858 N   0  0  0  0  0  0  0  0  0  0  0  0
    8.6377   45.6444   33.8397 C   0  0  0  0  0  0  0  0  0  0  0  0
    8.2138   46.9180   33.1769 C   0  0  0  0  0  0  0  0  0  0  0  0
    7.7549   46.8827   31.8577 O   0  0  0  0  0  0  0  0  0  0  0  0
    8.2939   48.0103   33.8026 O   0  0  0  0  0  0  0  0  0  0  0  0
    7.3410   48.0490   31.1536 C   0  0  0  0  0  0  0  0  0  0  0  0
    6.8811   47.6687   29.7680 C   0  0  0  0  0  0  0  0  0  0  0  0
    5.8619   46.7009   29.5467 C   0  0  0  0  0  0  0  0  0  0  0  0
    7.5122   48.2655   28.6605 C   0  0  0  0  0  0  0  0  0  0  0  0
    5.1652   46.0595   30.6314 N   0  0  0  0  0  4  0  0  0  0  0  0
    5.5348   46.3423   28.2267 C   0  0  0  0  0  0  0  0  0  0  0  0
    7.1595   47.9056   27.3594 C   0  0  0  0  0  0  0  0  0  0  0  0
    4.6726   44.7847   30.4722 O   0  0  0  0  0  1  0  0  0  0  0  0
    4.8569   46.6960   31.6594 O   0  0  0  0  0  0  0  0  0  0  0  0
    6.1764   46.9428   27.1431 C   0  0  0  0  0  0  0  0  0  0  0  0
    8.8084   40.1916   34.2089 O   0  0  0  0  0  0  0  0  0  0  0  0
   11.2372   40.7915   33.3686 O   0  0  0  0  0  0  0  0  0  0  0  0
   10.9151   40.6899   31.9958 C   0  0  0  0  0  0  0  0  0  0  0  0
   11.5268   39.3899   31.4374 C   0  0  0  0  0  0  0  0  0  0  0  0
   12.7506   39.0917   32.0840 O   0  0  0  0  0  0  0  0  0  0  0  0
   10.6121   38.1916   31.6452 C   0  0  0  0  0  0  0  0  0  0  0  0
   12.9428   37.6854   32.0295 C   0  0  0  0  0  0  0  0  0  0  0  0
    9.6069   38.0858   30.6602 O   0  0  0  0  0  0  0  0  0  0  0  0
   11.5844   37.0186   31.6880 C   0  0  0  0  0  0  0  0  0  0  0  0
   13.4898   37.2164   33.3250 N   0  0  0  0  0  0  0  0  0  0  0  0
   11.6202   36.3063   30.4693 O   0  0  0  0  0  0  0  0  0  0  0  0
   14.4758   36.3264   33.5738 C   0  0  0  0  0  0  0  0  0  0  0  0
   13.1175   37.6307   34.5699 C   0  0  0  0  0  0  0  0  0  0  0  0
   15.2065   35.6140   32.6745 N   0  0  0  0  0  0  0  0  0  0  0  0
   14.6731   36.2267   34.9190 C   0  0  0  0  0  0  0  0  0  0  0  0
   13.8224   37.0450   35.5792 N   0  0  0  0  0  0  0  0  0  0  0  0
   16.1640   34.7597   33.1550 C   0  0  0  0  0  0  0  0  0  0  0  0
   15.6517   35.3489   35.4135 C   0  0  0  0  0  0  0  0  0  0  0  0
   16.3795   34.6310   34.5045 N   0  0  0  0  0  0  0  0  0  0  0  0
   15.9006   35.1931   36.8093 N   0  0  0  0  0  0  0  0  0  0  0  0
    9.8313   44.9797   32.1417 H   0  0  0  0  0  0  0  0  0  0  0  0
   10.9360   46.8898   32.9093 H   0  0  0  0  0  0  0  0  0  0  0  0
   11.0755   46.3193   34.4911 H   0  0  0  0  0  0  0  0  0  0  0  0
    8.7497   45.8029   34.9352 H   0  0  0  0  0  0  0  0  0  0  0  0
    7.8269   44.8989   33.6895 H   0  0  0  0  0  0  0  0  0  0  0  0
    8.1937   48.7618   31.1095 H   0  0  0  0  0  0  0  0  0  0  0  0
    6.5155   48.5559   31.6964 H   0  0  0  0  0  0  0  0  0  0  0  0
    8.2893   49.0066   28.8014 H   0  0  0  0  0  0  0  0  0  0  0  0
    4.7662   45.6047   28.0341 H   0  0  0  0  0  0  0  0  0  0  0  0
    7.6550   48.3703   26.5167 H   0  0  0  0  0  0  0  0  0  0  0  0
    5.9081   46.6624   26.1327 H   0  0  0  0  0  0  0  0  0  0  0  0
    9.8249   40.7188   31.7592 H   0  0  0  0  0  0  0  0  0  0  0  0
   11.3814   41.5527   31.4738 H   0  0  0  0  0  0  0  0  0  0  0  0
   11.7317   39.5339   30.3521 H   0  0  0  0  0  0  0  0  0  0  0  0
   10.1214   38.2683   32.6412 H   0  0  0  0  0  0  0  0  0  0  0  0
   13.6883   37.4711   31.2319 H   0  0  0  0  0  0  0  0  0  0  0  0
   10.0256   38.1753   29.7656 H   0  0  0  0  0  0  0  0  0  0  0  0
   11.2795   36.3121   32.4915 H   0  0  0  0  0  0  0  0  0  0  0  0
   11.9871   36.9101   29.7716 H   0  0  0  0  0  0  0  0  0  0  0  0
   12.3366   38.3596   34.7454 H   0  0  0  0  0  0  0  0  0  0  0  0
   16.7576   34.1795   32.4621 H   0  0  0  0  0  0  0  0  0  0  0  0
   16.6369   34.5315   37.1416 H   0  0  0  0  0  0  0  0  0  0  0  0
   15.3533   35.7350   37.5144 H   0  0  0  0  0  0  0  0  0  0  0  0
  1  2  2  0
  1  3  1  0
  3  4  1  0
  4  5  1  0
  6  1  1  0
  7  6  1  0
  6  8  1  0
  8  9  1  0
  9 10  1  0
  9 11  2  0
 10 12  1  0
 12 13  1  0
 13 14  2  0
 15 13  1  0
 14 16  1  0
 14 17  1  0
 18 15  2  0
 16 19  1  0
 16 20  2  0
 17 21  2  0
 21 18  1  0
  4 22  2  0
  4 23  1  0
 24 23  1  0
 24 25  1  0
 25 26  1  0
 25 27  1  0
 26 28  1  0
 27 29  1  0
 27 30  1  0
 30 28  1  0
 28 31  1  0
 30 32  1  0
 33 31  1  0
 34 31  1  0
 35 33  2  0
 33 36  1  0
 37 34  2  0
 38 35  1  0
 36 39  2  0
 36 37  1  0
 40 38  2  0
 40 39  1  0
 39 41  1  0
  6 42  1  6
  7 43  1  0
  7 44  1  0
  8 45  1  0
  8 46  1  0
 12 47  1  0
 12 48  1  0
 15 49  1  0
 17 50  1  0
 18 51  1  0
 21 52  1  0
 24 53  1  0
 24 54  1  0
 25 55  1  0
 27 56  1  0
 28 57  1  0
 29 58  1  0
 30 59  1  0
 32 60  1  0
 34 61  1  0
 38 62  1  0
 41 63  1  0
 41 64  1  0
M  CHG  3   5  -1  16   1  19  -1
M  END
>  <EmbedRMS>  (596) 
0.08669714896750368

$$$$

     RDKit          3D

 64 67  0  0  0  0  0  0  0  0999 V2000
   10.2833   43.7748   33.8057 C   0  0  0  0  0  0  0  0  0  0  0  0
   11.4052   43.5912   34.3637 O   0  0  0  0  0  0  0  0  0  0  0  0
    9.3713   42.7288   33.6935 O   0  0  0  0  0  0  0  0  0  0  0  0
    9.8868   41.2339   34.2833 P   0  0  0  0  0  5  0  0  0  0  0  0
   10.3652   41.4712   35.8742 O   0  0  0  0  0  1  0  0  0  0  0  0
    9.9508   45.1203   33.2520 C   0  0  2  0  0  0  0  0  0  0  0  0
   11.0754   46.0288   33.4815 N   0  0  0  0  0  0  0  0  0  0  0  0
    8.6779   45.6881   33.9167 C   0  0  0  0  0  0  0  0  0  0  0  0
    7.4449   44.9989   33.4182 C   0  0  0  0  0  0  0  0  0  0  0  0
    6.9212   45.3518   32.1703 O   0  0  0  0  0  0  0  0  0  0  0  0
    6.9117   44.0853   34.1056 O   0  0  0  0  0  0  0  0  0  0  0  0
    5.9766   44.5455   31.4688 C   0  0  0  0  0  0  0  0  0  0  0  0
    6.6695   43.3675   30.8199 C   0  0  0  0  0  0  0  0  0  0  0  0
    6.1293   42.0559   30.8482 C   0  0  0  0  0  0  0  0  0  0  0  0
    7.8890   43.5903   30.1528 C   0  0  0  0  0  0  0  0  0  0  0  0
    4.8440   41.7826   31.4273 N   0  0  0  0  0  4  0  0  0  0  0  0
    6.8551   41.0003   30.2675 C   0  0  0  0  0  0  0  0  0  0  0  0
    8.5857   42.5333   29.5667 C   0  0  0  0  0  0  0  0  0  0  0  0
    3.7577   42.5551   31.0865 O   0  0  0  0  0  1  0  0  0  0  0  0
    4.6550   40.7192   32.0533 O   0  0  0  0  0  0  0  0  0  0  0  0
    8.0709   41.2405   29.6258 C   0  0  0  0  0  0  0  0  0  0  0  0
    8.8084   40.1919   34.2069 O   0  0  0  0  0  0  0  0  0  0  0  0
   11.2391   40.7897   33.3689 O   0  0  0  0  0  0  0  0  0  0  0  0
   10.9160   40.6874   31.9966 C   0  0  0  0  0  0  0  0  0  0  0  0
   11.5166   39.3811   31.4411 C   0  0  0  0  0  0  0  0  0  0  0  0
   12.7494   39.0892   32.0744 O   0  0  0  0  0  0  0  0  0  0  0  0
   10.6044   38.1884   31.6683 C   0  0  0  0  0  0  0  0  0  0  0  0
   12.9406   37.6833   32.0271 C   0  0  0  0  0  0  0  0  0  0  0  0
    9.6364   38.0782   30.6514 O   0  0  0  0  0  0  0  0  0  0  0  0
   11.5813   37.0195   31.6933 C   0  0  0  0  0  0  0  0  0  0  0  0
   13.4906   37.2180   33.3235 N   0  0  0  0  0  0  0  0  0  0  0  0
   11.6120   36.3201   30.4667 O   0  0  0  0  0  0  0  0  0  0  0  0
   14.4760   36.3272   33.5730 C   0  0  0  0  0  0  0  0  0  0  0  0
   13.1177   37.6319   34.5685 C   0  0  0  0  0  0  0  0  0  0  0  0
   15.2065   35.6142   32.6742 N   0  0  0  0  0  0  0  0  0  0  0  0
   14.6729   36.2275   34.9184 C   0  0  0  0  0  0  0  0  0  0  0  0
   13.8221   37.0458   35.5782 N   0  0  0  0  0  0  0  0  0  0  0  0
   16.1637   34.7596   33.1549 C   0  0  0  0  0  0  0  0  0  0  0  0
   15.6513   35.3493   35.4133 C   0  0  0  0  0  0  0  0  0  0  0  0
   16.3791   34.6312   34.5044 N   0  0  0  0  0  0  0  0  0  0  0  0
   15.9000   35.1935   36.8091 N   0  0  0  0  0  0  0  0  0  0  0  0
    9.7867   45.0220   32.1549 H   0  0  0  0  0  0  0  0  0  0  0  0
   10.8365   46.9633   33.0763 H   0  0  0  0  0  0  0  0  0  0  0  0
   11.8937   45.6903   32.9232 H   0  0  0  0  0  0  0  0  0  0  0  0
    8.7472   45.6003   35.0238 H   0  0  0  0  0  0  0  0  0  0  0  0
    8.5777   46.7684   33.6763 H   0  0  0  0  0  0  0  0  0  0  0  0
    5.5078   45.1592   30.6717 H   0  0  0  0  0  0  0  0  0  0  0  0
    5.1778   44.2357   32.1729 H   0  0  0  0  0  0  0  0  0  0  0  0
    8.3073   44.5874   30.0921 H   0  0  0  0  0  0  0  0  0  0  0  0
    6.4613   39.9919   30.2850 H   0  0  0  0  0  0  0  0  0  0  0  0
    9.5277   42.7174   29.0665 H   0  0  0  0  0  0  0  0  0  0  0  0
    8.6127   40.4236   29.1674 H   0  0  0  0  0  0  0  0  0  0  0  0
    9.8273   40.7250   31.7640 H   0  0  0  0  0  0  0  0  0  0  0  0
   11.3873   41.5452   31.4710 H   0  0  0  0  0  0  0  0  0  0  0  0
   11.6958   39.5082   30.3485 H   0  0  0  0  0  0  0  0  0  0  0  0
   10.1200   38.2569   32.6724 H   0  0  0  0  0  0  0  0  0  0  0  0
   13.6807   37.4625   31.2262 H   0  0  0  0  0  0  0  0  0  0  0  0
    8.8489   38.6033   30.9489 H   0  0  0  0  0  0  0  0  0  0  0  0
   11.2852   36.3038   32.4917 H   0  0  0  0  0  0  0  0  0  0  0  0
   11.8848   36.9608   29.7585 H   0  0  0  0  0  0  0  0  0  0  0  0
   12.3361   38.3602   34.7437 H   0  0  0  0  0  0  0  0  0  0  0  0
   16.7573   34.1792   32.4622 H   0  0  0  0  0  0  0  0  0  0  0  0
   16.6361   34.5318   37.1416 H   0  0  0  0  0  0  0  0  0  0  0  0
   15.3527   35.7357   37.5140 H   0  0  0  0  0  0  0  0  0  0  0  0
  1  2  2  0
  1  3  1  0
  3  4  1  0
  4  5  1  0
  6  1  1  0
  7  6  1  0
  6  8  1  0
  8  9  1  0
  9 10  1  0
  9 11  2  0
 10 12  1  0
 12 13  1  0
 13 14  2  0
 15 13  1  0
 14 16  1  0
 14 17  1  0
 18 15  2  0
 16 19  1  0
 16 20  2  0
 17 21  2  0
 21 18  1  0
  4 22  2  0
  4 23  1  0
 24 23  1  0
 24 25  1  0
 25 26  1  0
 25 27  1  0
 26 28  1  0
 27 29  1  0
 27 30  1  0
 30 28  1  0
 28 31  1  0
 30 32  1  0
 33 31  1  0
 34 31  1  0
 35 33  2  0
 33 36  1  0
 37 34  2  0
 38 35  1  0
 36 39  2  0
 36 37  1  0
 40 38  2  0
 40 39  1  0
 39 41  1  0
  6 42  1  6
  7 43  1  0
  7 44  1  0
  8 45  1  0
  8 46  1  0
 12 47  1  0
 12 48  1  0
 15 49  1  0
 17 50  1  0
 18 51  1  0
 21 52  1  0
 24 53  1  0
 24 54  1  0
 25 55  1  0
 27 56  1  0
 28 57  1  0
 29 58  1  0
 30 59  1  0
 32 60  1  0
 34 61  1  0
 38 62  1  0
 41 63  1  0
 41 64  1  0
M  CHG  3   5  -1  16   1  19  -1
M  END
>  <EmbedRMS>  (597) 
0.08851658221599311

$$$$

     RDKit          3D

 64 67  0  0  0  0  0  0  0  0999 V2000
   10.2844   43.7743   33.8071 C   0  0  0  0  0  0  0  0  0  0  0  0
   11.4070   43.5905   34.3637 O   0  0  0  0  0  0  0  0  0  0  0  0
    9.3680   42.7311   33.6988 O   0  0  0  0  0  0  0  0  0  0  0  0
    9.8862   41.2340   34.2827 P   0  0  0  0  0  5  0  0  0  0  0  0
   10.3671   41.4692   35.8732 O   0  0  0  0  0  1  0  0  0  0  0  0
    9.9495   45.1159   33.2540 C   0  0  2  0  0  0  0  0  0  0  0  0
   11.0748   46.0281   33.4734 N   0  0  0  0  0  0  0  0  0  0  0  0
    8.6777   45.6538   33.9389 C   0  0  0  0  0  0  0  0  0  0  0  0
    8.1697   46.8901   33.2635 C   0  0  0  0  0  0  0  0  0  0  0  0
    7.6023   46.7906   31.9905 O   0  0  0  0  0  0  0  0  0  0  0  0
    8.2713   48.0084   33.8381 O   0  0  0  0  0  0  0  0  0  0  0  0
    7.0958   47.9173   31.2824 C   0  0  0  0  0  0  0  0  0  0  0  0
    6.5227   47.4709   29.9601 C   0  0  0  0  0  0  0  0  0  0  0  0
    5.5134   46.4720   29.8698 C   0  0  0  0  0  0  0  0  0  0  0  0
    7.0336   48.0385   28.7778 C   0  0  0  0  0  0  0  0  0  0  0  0
    4.9362   45.8575   31.0371 N   0  0  0  0  0  4  0  0  0  0  0  0
    5.0762   46.0551   28.5997 C   0  0  0  0  0  0  0  0  0  0  0  0
    6.5727   47.6204   27.5290 C   0  0  0  0  0  0  0  0  0  0  0  0
    4.4641   44.5666   30.9708 O   0  0  0  0  0  1  0  0  0  0  0  0
    4.7071   46.5262   32.0654 O   0  0  0  0  0  0  0  0  0  0  0  0
    5.5995   46.6277   27.4400 C   0  0  0  0  0  0  0  0  0  0  0  0
    8.8082   40.1915   34.2078 O   0  0  0  0  0  0  0  0  0  0  0  0
   11.2374   40.7905   33.3654 O   0  0  0  0  0  0  0  0  0  0  0  0
   10.9138   40.6843   31.9928 C   0  0  0  0  0  0  0  0  0  0  0  0
   11.5176   39.3772   31.4393 C   0  0  0  0  0  0  0  0  0  0  0  0
   12.7478   39.0868   32.0755 O   0  0  0  0  0  0  0  0  0  0  0  0
   10.6069   38.1851   31.6656 C   0  0  0  0  0  0  0  0  0  0  0  0
   12.9372   37.6810   32.0290 C   0  0  0  0  0  0  0  0  0  0  0  0
    9.6404   38.0882   30.6475 O   0  0  0  0  0  0  0  0  0  0  0  0
   11.5789   37.0134   31.7045 C   0  0  0  0  0  0  0  0  0  0  0  0
   13.4915   37.2182   33.3239 N   0  0  0  0  0  0  0  0  0  0  0  0
   11.6125   36.3388   30.4673 O   0  0  0  0  0  0  0  0  0  0  0  0
   14.4766   36.3272   33.5730 C   0  0  0  0  0  0  0  0  0  0  0  0
   13.1184   37.6317   34.5690 C   0  0  0  0  0  0  0  0  0  0  0  0
   15.2066   35.6139   32.6740 N   0  0  0  0  0  0  0  0  0  0  0  0
   14.6735   36.2273   34.9184 C   0  0  0  0  0  0  0  0  0  0  0  0
   13.8227   37.0455   35.5785 N   0  0  0  0  0  0  0  0  0  0  0  0
   16.1638   34.7593   33.1548 C   0  0  0  0  0  0  0  0  0  0  0  0
   15.6517   35.3490   35.4132 C   0  0  0  0  0  0  0  0  0  0  0  0
   16.3792   34.6308   34.5043 N   0  0  0  0  0  0  0  0  0  0  0  0
   15.9003   35.1932   36.8091 N   0  0  0  0  0  0  0  0  0  0  0  0
    9.7664   45.0025   32.1611 H   0  0  0  0  0  0  0  0  0  0  0  0
   11.8929   45.6822   32.9194 H   0  0  0  0  0  0  0  0  0  0  0  0
   10.8406   46.9582   33.0573 H   0  0  0  0  0  0  0  0  0  0  0  0
    7.8691   44.8921   33.8932 H   0  0  0  0  0  0  0  0  0  0  0  0
    8.8848   45.8631   35.0120 H   0  0  0  0  0  0  0  0  0  0  0  0
    7.9218   48.6472   31.1335 H   0  0  0  0  0  0  0  0  0  0  0  0
    6.3091   48.4269   31.8780 H   0  0  0  0  0  0  0  0  0  0  0  0
    7.8002   48.8025   28.8189 H   0  0  0  0  0  0  0  0  0  0  0  0
    4.3127   45.2932   28.5063 H   0  0  0  0  0  0  0  0  0  0  0  0
    6.9763   48.0633   26.6276 H   0  0  0  0  0  0  0  0  0  0  0  0
    5.2469   46.3024   26.4697 H   0  0  0  0  0  0  0  0  0  0  0  0
    9.8236   40.7188   31.7568 H   0  0  0  0  0  0  0  0  0  0  0  0
   11.3852   41.5413   31.4661 H   0  0  0  0  0  0  0  0  0  0  0  0
   11.7008   39.5016   30.3469 H   0  0  0  0  0  0  0  0  0  0  0  0
   10.1098   38.2752   32.6605 H   0  0  0  0  0  0  0  0  0  0  0  0
   13.6713   37.4590   31.2227 H   0  0  0  0  0  0  0  0  0  0  0  0
    9.0032   37.3837   30.9351 H   0  0  0  0  0  0  0  0  0  0  0  0
   11.2705   36.3048   32.5088 H   0  0  0  0  0  0  0  0  0  0  0  0
   12.1443   35.5135   30.6141 H   0  0  0  0  0  0  0  0  0  0  0  0
   12.3362   38.3592   34.7444 H   0  0  0  0  0  0  0  0  0  0  0  0
   16.7571   34.1786   32.4620 H   0  0  0  0  0  0  0  0  0  0  0  0
   15.3531   35.7355   37.5139 H   0  0  0  0  0  0  0  0  0  0  0  0
   16.6362   34.5314   37.1416 H   0  0  0  0  0  0  0  0  0  0  0  0
  1  2  2  0
  1  3  1  0
  3  4  1  0
  4  5  1  0
  6  1  1  0
  7  6  1  0
  6  8  1  0
  8  9  1  0
  9 10  1  0
  9 11  2  0
 10 12  1  0
 12 13  1  0
 13 14  2  0
 15 13  1  0
 14 16  1  0
 14 17  1  0
 18 15  2  0
 16 19  1  0
 16 20  2  0
 17 21  2  0
 21 18  1  0
  4 22  2  0
  4 23  1  0
 24 23  1  0
 24 25  1  0
 25 26  1  0
 25 27  1  0
 26 28  1  0
 27 29  1  0
 27 30  1  0
 30 28  1  0
 28 31  1  0
 30 32  1  0
 33 31  1  0
 34 31  1  0
 35 33  2  0
 33 36  1  0
 37 34  2  0
 38 35  1  0
 36 39  2  0
 36 37  1  0
 40 38  2  0
 40 39  1  0
 39 41  1  0
  6 42  1  6
  7 43  1  0
  7 44  1  0
  8 45  1  0
  8 46  1  0
 12 47  1  0
 12 48  1  0
 15 49  1  0
 17 50  1  0
 18 51  1  0
 21 52  1  0
 24 53  1  0
 24 54  1  0
 25 55  1  0
 27 56  1  0
 28 57  1  0
 29 58  1  0
 30 59  1  0
 32 60  1  0
 34 61  1  0
 38 62  1  0
 41 63  1  0
 41 64  1  0
M  CHG  3   5  -1  16   1  19  -1
M  END
>  <EmbedRMS>  (598) 
0.0888931517368497

$$$$

     RDKit          3D

 64 67  0  0  0  0  0  0  0  0999 V2000
   10.2811   43.7761   33.8097 C   0  0  0  0  0  0  0  0  0  0  0  0
   11.4071   43.5920   34.3591 O   0  0  0  0  0  0  0  0  0  0  0  0
    9.3697   42.7295   33.6981 O   0  0  0  0  0  0  0  0  0  0  0  0
    9.8864   41.2339   34.2846 P   0  0  0  0  0  5  0  0  0  0  0  0
   10.3660   41.4704   35.8750 O   0  0  0  0  0  1  0  0  0  0  0  0
    9.9501   45.1175   33.2491 C   0  0  2  0  0  0  0  0  0  0  0  0
   11.0751   46.0256   33.4794 N   0  0  0  0  0  0  0  0  0  0  0  0
    8.6570   45.6936   33.8685 C   0  0  0  0  0  0  0  0  0  0  0  0
    7.4396   44.9388   33.4294 C   0  0  0  0  0  0  0  0  0  0  0  0
    6.8431   44.0252   34.3074 O   0  0  0  0  0  0  0  0  0  0  0  0
    6.9794   45.1140   32.2680 O   0  0  0  0  0  0  0  0  0  0  0  0
    5.7466   43.1845   33.9460 C   0  0  0  0  0  0  0  0  0  0  0  0
    4.3987   43.8037   34.2633 C   0  0  0  0  0  0  0  0  0  0  0  0
    3.2273   42.9992   34.3202 C   0  0  0  0  0  0  0  0  0  0  0  0
    4.2855   45.1873   34.5168 C   0  0  0  0  0  0  0  0  0  0  0  0
    3.2626   41.5880   34.0372 N   0  0  0  0  0  4  0  0  0  0  0  0
    2.0003   43.5917   34.6709 C   0  0  0  0  0  0  0  0  0  0  0  0
    3.0546   45.7555   34.8468 C   0  0  0  0  0  0  0  0  0  0  0  0
    4.0198   41.0995   32.9978 O   0  0  0  0  0  1  0  0  0  0  0  0
    2.4769   40.8132   34.6213 O   0  0  0  0  0  0  0  0  0  0  0  0
    1.9159   44.9590   34.9296 C   0  0  0  0  0  0  0  0  0  0  0  0
    8.8079   40.1920   34.2087 O   0  0  0  0  0  0  0  0  0  0  0  0
   11.2376   40.7896   33.3690 O   0  0  0  0  0  0  0  0  0  0  0  0
   10.9157   40.6895   31.9961 C   0  0  0  0  0  0  0  0  0  0  0  0
   11.5270   39.3897   31.4372 C   0  0  0  0  0  0  0  0  0  0  0  0
   12.7508   39.0915   32.0836 O   0  0  0  0  0  0  0  0  0  0  0  0
   10.6121   38.1916   31.6452 C   0  0  0  0  0  0  0  0  0  0  0  0
   12.9429   37.6851   32.0294 C   0  0  0  0  0  0  0  0  0  0  0  0
    9.6069   38.0858   30.6603 O   0  0  0  0  0  0  0  0  0  0  0  0
   11.5844   37.0185   31.6879 C   0  0  0  0  0  0  0  0  0  0  0  0
   13.4898   37.2163   33.3249 N   0  0  0  0  0  0  0  0  0  0  0  0
   11.6200   36.3062   30.4693 O   0  0  0  0  0  0  0  0  0  0  0  0
   14.4759   36.3263   33.5738 C   0  0  0  0  0  0  0  0  0  0  0  0
   13.1175   37.6307   34.5699 C   0  0  0  0  0  0  0  0  0  0  0  0
   15.2065   35.6139   32.6746 N   0  0  0  0  0  0  0  0  0  0  0  0
   14.6731   36.2267   34.9190 C   0  0  0  0  0  0  0  0  0  0  0  0
   13.8224   37.0450   35.5792 N   0  0  0  0  0  0  0  0  0  0  0  0
   16.1640   34.7596   33.1551 C   0  0  0  0  0  0  0  0  0  0  0  0
   15.6517   35.3489   35.4136 C   0  0  0  0  0  0  0  0  0  0  0  0
   16.3795   34.6310   34.5046 N   0  0  0  0  0  0  0  0  0  0  0  0
   15.9006   35.1931   36.8094 N   0  0  0  0  0  0  0  0  0  0  0  0
    9.8124   45.0036   32.1506 H   0  0  0  0  0  0  0  0  0  0  0  0
   11.1178   46.2825   34.4936 H   0  0  0  0  0  0  0  0  0  0  0  0
   10.9071   46.9082   32.9435 H   0  0  0  0  0  0  0  0  0  0  0  0
    8.5372   46.7545   33.5587 H   0  0  0  0  0  0  0  0  0  0  0  0
    8.7244   45.6763   34.9785 H   0  0  0  0  0  0  0  0  0  0  0  0
    5.8018   42.9236   32.8673 H   0  0  0  0  0  0  0  0  0  0  0  0
    5.8514   42.2443   34.5276 H   0  0  0  0  0  0  0  0  0  0  0  0
    5.1457   45.8396   34.4762 H   0  0  0  0  0  0  0  0  0  0  0  0
    1.0994   42.9936   34.7254 H   0  0  0  0  0  0  0  0  0  0  0  0
    2.9852   46.8175   35.0445 H   0  0  0  0  0  0  0  0  0  0  0  0
    0.9635   45.4029   35.1894 H   0  0  0  0  0  0  0  0  0  0  0  0
   11.3826   41.5525   31.4749 H   0  0  0  0  0  0  0  0  0  0  0  0
    9.8255   40.7189   31.7591 H   0  0  0  0  0  0  0  0  0  0  0  0
   11.7317   39.5338   30.3518 H   0  0  0  0  0  0  0  0  0  0  0  0
   10.1215   38.2683   32.6413 H   0  0  0  0  0  0  0  0  0  0  0  0
   13.6882   37.4705   31.2318 H   0  0  0  0  0  0  0  0  0  0  0  0
   10.0255   38.1751   29.7656 H   0  0  0  0  0  0  0  0  0  0  0  0
   11.2795   36.3123   32.4915 H   0  0  0  0  0  0  0  0  0  0  0  0
   11.9870   36.9099   29.7714 H   0  0  0  0  0  0  0  0  0  0  0  0
   12.3365   38.3595   34.7453 H   0  0  0  0  0  0  0  0  0  0  0  0
   16.7576   34.1794   32.4622 H   0  0  0  0  0  0  0  0  0  0  0  0
   15.3532   35.7351   37.5143 H   0  0  0  0  0  0  0  0  0  0  0  0
   16.6368   34.5316   37.1418 H   0  0  0  0  0  0  0  0  0  0  0  0
  1  2  2  0
  1  3  1  0
  3  4  1  0
  4  5  1  0
  6  1  1  0
  7  6  1  0
  6  8  1  0
  8  9  1  0
  9 10  1  0
  9 11  2  0
 10 12  1  0
 12 13  1  0
 13 14  2  0
 15 13  1  0
 14 16  1  0
 14 17  1  0
 18 15  2  0
 16 19  1  0
 16 20  2  0
 17 21  2  0
 21 18  1  0
  4 22  2  0
  4 23  1  0
 24 23  1  0
 24 25  1  0
 25 26  1  0
 25 27  1  0
 26 28  1  0
 27 29  1  0
 27 30  1  0
 30 28  1  0
 28 31  1  0
 30 32  1  0
 33 31  1  0
 34 31  1  0
 35 33  2  0
 33 36  1  0
 37 34  2  0
 38 35  1  0
 36 39  2  0
 36 37  1  0
 40 38  2  0
 40 39  1  0
 39 41  1  0
  6 42  1  6
  7 43  1  0
  7 44  1  0
  8 45  1  0
  8 46  1  0
 12 47  1  0
 12 48  1  0
 15 49  1  0
 17 50  1  0
 18 51  1  0
 21 52  1  0
 24 53  1  0
 24 54  1  0
 25 55  1  0
 27 56  1  0
 28 57  1  0
 29 58  1  0
 30 59  1  0
 32 60  1  0
 34 61  1  0
 38 62  1  0
 41 63  1  0
 41 64  1  0
M  CHG  3   5  -1  16   1  19  -1
M  END
>  <EmbedRMS>  (599) 
0.08711441427586425

$$$$

     RDKit          3D

 64 67  0  0  0  0  0  0  0  0999 V2000
   10.2845   43.7742   33.8071 C   0  0  0  0  0  0  0  0  0  0  0  0
   11.4069   43.5904   34.3638 O   0  0  0  0  0  0  0  0  0  0  0  0
    9.3683   42.7308   33.6987 O   0  0  0  0  0  0  0  0  0  0  0  0
    9.8864   41.2339   34.2832 P   0  0  0  0  0  5  0  0  0  0  0  0
   10.3659   41.4694   35.8740 O   0  0  0  0  0  1  0  0  0  0  0  0
    9.9499   45.1157   33.2534 C   0  0  2  0  0  0  0  0  0  0  0  0
   11.0750   46.0281   33.4740 N   0  0  0  0  0  0  0  0  0  0  0  0
    8.6770   45.6535   33.9365 C   0  0  0  0  0  0  0  0  0  0  0  0
    8.1764   46.8966   33.2676 C   0  0  0  0  0  0  0  0  0  0  0  0
    7.6258   46.8109   31.9862 O   0  0  0  0  0  0  0  0  0  0  0  0
    8.2721   48.0090   33.8546 O   0  0  0  0  0  0  0  0  0  0  0  0
    7.1490   47.9499   31.2742 C   0  0  0  0  0  0  0  0  0  0  0  0
    6.6050   47.5521   29.9209 C   0  0  0  0  0  0  0  0  0  0  0  0
    6.6224   48.4505   28.8210 C   0  0  0  0  0  0  0  0  0  0  0  0
    6.0407   46.2723   29.7482 C   0  0  0  0  0  0  0  0  0  0  0  0
    7.0865   49.8049   28.9602 N   0  0  0  0  0  4  0  0  0  0  0  0
    6.1584   48.0121   27.5674 C   0  0  0  0  0  0  0  0  0  0  0  0
    5.5682   45.8637   28.5003 C   0  0  0  0  0  0  0  0  0  0  0  0
    6.7328   50.5514   30.0605 O   0  0  0  0  0  1  0  0  0  0  0  0
    7.6502   50.3752   28.0032 O   0  0  0  0  0  0  0  0  0  0  0  0
    5.6380   46.7273   27.4095 C   0  0  0  0  0  0  0  0  0  0  0  0
    8.8087   40.1911   34.2072 O   0  0  0  0  0  0  0  0  0  0  0  0
   11.2390   40.7900   33.3683 O   0  0  0  0  0  0  0  0  0  0  0  0
   10.9199   40.6894   31.9945 C   0  0  0  0  0  0  0  0  0  0  0  0
   11.5173   39.3800   31.4395 C   0  0  0  0  0  0  0  0  0  0  0  0
   12.7480   39.0860   32.0732 O   0  0  0  0  0  0  0  0  0  0  0  0
   10.6032   38.1891   31.6666 C   0  0  0  0  0  0  0  0  0  0  0  0
   12.9336   37.6795   32.0279 C   0  0  0  0  0  0  0  0  0  0  0  0
    9.6397   38.0777   30.6456 O   0  0  0  0  0  0  0  0  0  0  0  0
   11.5739   37.0153   31.7057 C   0  0  0  0  0  0  0  0  0  0  0  0
   13.4903   37.2177   33.3231 N   0  0  0  0  0  0  0  0  0  0  0  0
   11.6210   36.3375   30.4695 O   0  0  0  0  0  0  0  0  0  0  0  0
   14.4761   36.3273   33.5725 C   0  0  0  0  0  0  0  0  0  0  0  0
   13.1179   37.6316   34.5684 C   0  0  0  0  0  0  0  0  0  0  0  0
   15.2063   35.6139   32.6737 N   0  0  0  0  0  0  0  0  0  0  0  0
   14.6734   36.2277   34.9179 C   0  0  0  0  0  0  0  0  0  0  0  0
   13.8225   37.0459   35.5779 N   0  0  0  0  0  0  0  0  0  0  0  0
   16.1636   34.7594   33.1546 C   0  0  0  0  0  0  0  0  0  0  0  0
   15.6515   35.3494   35.4129 C   0  0  0  0  0  0  0  0  0  0  0  0
   16.3791   34.6311   34.5041 N   0  0  0  0  0  0  0  0  0  0  0  0
   15.9001   35.1936   36.8088 N   0  0  0  0  0  0  0  0  0  0  0  0
    9.7680   45.0024   32.1604 H   0  0  0  0  0  0  0  0  0  0  0  0
   11.8941   45.6813   32.9222 H   0  0  0  0  0  0  0  0  0  0  0  0
   10.8421   46.9577   33.0559 H   0  0  0  0  0  0  0  0  0  0  0  0
    8.8804   45.8547   35.0119 H   0  0  0  0  0  0  0  0  0  0  0  0
    7.8664   44.8946   33.8821 H   0  0  0  0  0  0  0  0  0  0  0  0
    7.9976   48.6566   31.1522 H   0  0  0  0  0  0  0  0  0  0  0  0
    6.3407   48.4420   31.8569 H   0  0  0  0  0  0  0  0  0  0  0  0
    5.9733   45.5796   30.5777 H   0  0  0  0  0  0  0  0  0  0  0  0
    6.1744   48.6785   26.7142 H   0  0  0  0  0  0  0  0  0  0  0  0
    5.1491   44.8731   28.3788 H   0  0  0  0  0  0  0  0  0  0  0  0
    5.2733   46.4066   26.4421 H   0  0  0  0  0  0  0  0  0  0  0  0
   11.4017   41.5436   31.4726 H   0  0  0  0  0  0  0  0  0  0  0  0
    9.8320   40.7398   31.7543 H   0  0  0  0  0  0  0  0  0  0  0  0
   11.6984   39.5041   30.3468 H   0  0  0  0  0  0  0  0  0  0  0  0
   10.1091   38.2633   32.6649 H   0  0  0  0  0  0  0  0  0  0  0  0
   13.6656   37.4538   31.2207 H   0  0  0  0  0  0  0  0  0  0  0  0
    8.8967   38.6902   30.8850 H   0  0  0  0  0  0  0  0  0  0  0  0
   11.2845   36.3060   32.5175 H   0  0  0  0  0  0  0  0  0  0  0  0
   10.8523   35.7094   30.4590 H   0  0  0  0  0  0  0  0  0  0  0  0
   12.3353   38.3588   34.7439 H   0  0  0  0  0  0  0  0  0  0  0  0
   16.7570   34.1788   32.4619 H   0  0  0  0  0  0  0  0  0  0  0  0
   15.3529   35.7359   37.5136 H   0  0  0  0  0  0  0  0  0  0  0  0
   16.6360   34.5317   37.1413 H   0  0  0  0  0  0  0  0  0  0  0  0
  1  2  2  0
  1  3  1  0
  3  4  1  0
  4  5  1  0
  6  1  1  0
  7  6  1  0
  6  8  1  0
  8  9  1  0
  9 10  1  0
  9 11  2  0
 10 12  1  0
 12 13  1  0
 13 14  2  0
 15 13  1  0
 14 16  1  0
 14 17  1  0
 18 15  2  0
 16 19  1  0
 16 20  2  0
 17 21  2  0
 21 18  1  0
  4 22  2  0
  4 23  1  0
 24 23  1  0
 24 25  1  0
 25 26  1  0
 25 27  1  0
 26 28  1  0
 27 29  1  0
 27 30  1  0
 30 28  1  0
 28 31  1  0
 30 32  1  0
 33 31  1  0
 34 31  1  0
 35 33  2  0
 33 36  1  0
 37 34  2  0
 38 35  1  0
 36 39  2  0
 36 37  1  0
 40 38  2  0
 40 39  1  0
 39 41  1  0
  6 42  1  6
  7 43  1  0
  7 44  1  0
  8 45  1  0
  8 46  1  0
 12 47  1  0
 12 48  1  0
 15 49  1  0
 17 50  1  0
 18 51  1  0
 21 52  1  0
 24 53  1  0
 24 54  1  0
 25 55  1  0
 27 56  1  0
 28 57  1  0
 29 58  1  0
 30 59  1  0
 32 60  1  0
 34 61  1  0
 38 62  1  0
 41 63  1  0
 41 64  1  0
M  CHG  3   5  -1  16   1  19  -1
M  END
>  <EmbedRMS>  (600) 
0.08949590336246528

$$$$

     RDKit          3D

 64 67  0  0  0  0  0  0  0  0999 V2000
   10.2844   43.7743   33.8068 C   0  0  0  0  0  0  0  0  0  0  0  0
   11.4069   43.5903   34.3635 O   0  0  0  0  0  0  0  0  0  0  0  0
    9.3680   42.7311   33.6987 O   0  0  0  0  0  0  0  0  0  0  0  0
    9.8862   41.2340   34.2827 P   0  0  0  0  0  5  0  0  0  0  0  0
   10.3670   41.4693   35.8732 O   0  0  0  0  0  1  0  0  0  0  0  0
    9.9493   45.1163   33.2546 C   0  0  2  0  0  0  0  0  0  0  0  0
   11.0752   46.0280   33.4735 N   0  0  0  0  0  0  0  0  0  0  0  0
    8.6783   45.6536   33.9414 C   0  0  0  0  0  0  0  0  0  0  0  0
    8.1762   46.8980   33.2767 C   0  0  0  0  0  0  0  0  0  0  0  0
    7.5633   46.8060   32.0223 O   0  0  0  0  0  0  0  0  0  0  0  0
    8.3268   48.0151   33.8418 O   0  0  0  0  0  0  0  0  0  0  0  0
    7.0567   47.9331   31.3090 C   0  0  0  0  0  0  0  0  0  0  0  0
    5.8371   48.5033   31.9973 C   0  0  0  0  0  0  0  0  0  0  0  0
    5.6862   49.8883   32.2684 C   0  0  0  0  0  0  0  0  0  0  0  0
    4.7719   47.6301   32.2845 C   0  0  0  0  0  0  0  0  0  0  0  0
    6.7368   50.8296   32.0043 N   0  0  0  0  0  4  0  0  0  0  0  0
    4.4764   50.3560   32.8103 C   0  0  0  0  0  0  0  0  0  0  0  0
    3.5846   48.1107   32.8387 C   0  0  0  0  0  0  0  0  0  0  0  0
    7.9779   50.6496   32.5690 O   0  0  0  0  0  1  0  0  0  0  0  0
    6.4656   51.9323   31.4858 O   0  0  0  0  0  0  0  0  0  0  0  0
    3.4359   49.4718   33.0983 C   0  0  0  0  0  0  0  0  0  0  0  0
    8.8082   40.1915   34.2078 O   0  0  0  0  0  0  0  0  0  0  0  0
   11.2374   40.7904   33.3655 O   0  0  0  0  0  0  0  0  0  0  0  0
   10.9138   40.6842   31.9928 C   0  0  0  0  0  0  0  0  0  0  0  0
   11.5176   39.3772   31.4393 C   0  0  0  0  0  0  0  0  0  0  0  0
   12.7478   39.0868   32.0755 O   0  0  0  0  0  0  0  0  0  0  0  0
   10.6069   38.1851   31.6656 C   0  0  0  0  0  0  0  0  0  0  0  0
   12.9372   37.6810   32.0290 C   0  0  0  0  0  0  0  0  0  0  0  0
    9.6404   38.0882   30.6475 O   0  0  0  0  0  0  0  0  0  0  0  0
   11.5789   37.0133   31.7045 C   0  0  0  0  0  0  0  0  0  0  0  0
   13.4915   37.2181   33.3239 N   0  0  0  0  0  0  0  0  0  0  0  0
   11.6125   36.3388   30.4673 O   0  0  0  0  0  0  0  0  0  0  0  0
   14.4766   36.3272   33.5730 C   0  0  0  0  0  0  0  0  0  0  0  0
   13.1184   37.6317   34.5690 C   0  0  0  0  0  0  0  0  0  0  0  0
   15.2066   35.6139   32.6741 N   0  0  0  0  0  0  0  0  0  0  0  0
   14.6735   36.2273   34.9184 C   0  0  0  0  0  0  0  0  0  0  0  0
   13.8228   37.0455   35.5785 N   0  0  0  0  0  0  0  0  0  0  0  0
   16.1638   34.7593   33.1548 C   0  0  0  0  0  0  0  0  0  0  0  0
   15.6517   35.3491   35.4132 C   0  0  0  0  0  0  0  0  0  0  0  0
   16.3792   34.6308   34.5043 N   0  0  0  0  0  0  0  0  0  0  0  0
   15.9004   35.1932   36.8091 N   0  0  0  0  0  0  0  0  0  0  0  0
    9.7644   45.0043   32.1619 H   0  0  0  0  0  0  0  0  0  0  0  0
   11.8939   45.6798   32.9219 H   0  0  0  0  0  0  0  0  0  0  0  0
   10.8432   46.9570   33.0539 H   0  0  0  0  0  0  0  0  0  0  0  0
    8.8841   45.8533   35.0166 H   0  0  0  0  0  0  0  0  0  0  0  0
    7.8673   44.8949   33.8887 H   0  0  0  0  0  0  0  0  0  0  0  0
    6.7546   47.5965   30.2950 H   0  0  0  0  0  0  0  0  0  0  0  0
    7.8674   48.6728   31.1642 H   0  0  0  0  0  0  0  0  0  0  0  0
    4.8580   46.5723   32.0671 H   0  0  0  0  0  0  0  0  0  0  0  0
    4.3461   51.4096   33.0238 H   0  0  0  0  0  0  0  0  0  0  0  0
    2.7742   47.4272   33.0570 H   0  0  0  0  0  0  0  0  0  0  0  0
    2.5121   49.8433   33.5228 H   0  0  0  0  0  0  0  0  0  0  0  0
   11.3853   41.5413   31.4661 H   0  0  0  0  0  0  0  0  0  0  0  0
    9.8236   40.7188   31.7567 H   0  0  0  0  0  0  0  0  0  0  0  0
   11.7008   39.5015   30.3469 H   0  0  0  0  0  0  0  0  0  0  0  0
   10.1098   38.2752   32.6605 H   0  0  0  0  0  0  0  0  0  0  0  0
   13.6713   37.4590   31.2227 H   0  0  0  0  0  0  0  0  0  0  0  0
    9.0032   37.3836   30.9351 H   0  0  0  0  0  0  0  0  0  0  0  0
   11.2705   36.3048   32.5088 H   0  0  0  0  0  0  0  0  0  0  0  0
   12.1442   35.5135   30.6141 H   0  0  0  0  0  0  0  0  0  0  0  0
   12.3362   38.3592   34.7444 H   0  0  0  0  0  0  0  0  0  0  0  0
   16.7571   34.1787   32.4620 H   0  0  0  0  0  0  0  0  0  0  0  0
   15.3531   35.7355   37.5139 H   0  0  0  0  0  0  0  0  0  0  0  0
   16.6363   34.5314   37.1416 H   0  0  0  0  0  0  0  0  0  0  0  0
  1  2  2  0
  1  3  1  0
  3  4  1  0
  4  5  1  0
  6  1  1  0
  7  6  1  0
  6  8  1  0
  8  9  1  0
  9 10  1  0
  9 11  2  0
 10 12  1  0
 12 13  1  0
 13 14  2  0
 15 13  1  0
 14 16  1  0
 14 17  1  0
 18 15  2  0
 16 19  1  0
 16 20  2  0
 17 21  2  0
 21 18  1  0
  4 22  2  0
  4 23  1  0
 24 23  1  0
 24 25  1  0
 25 26  1  0
 25 27  1  0
 26 28  1  0
 27 29  1  0
 27 30  1  0
 30 28  1  0
 28 31  1  0
 30 32  1  0
 33 31  1  0
 34 31  1  0
 35 33  2  0
 33 36  1  0
 37 34  2  0
 38 35  1  0
 36 39  2  0
 36 37  1  0
 40 38  2  0
 40 39  1  0
 39 41  1  0
  6 42  1  6
  7 43  1  0
  7 44  1  0
  8 45  1  0
  8 46  1  0
 12 47  1  0
 12 48  1  0
 15 49  1  0
 17 50  1  0
 18 51  1  0
 21 52  1  0
 24 53  1  0
 24 54  1  0
 25 55  1  0
 27 56  1  0
 28 57  1  0
 29 58  1  0
 30 59  1  0
 32 60  1  0
 34 61  1  0
 38 62  1  0
 41 63  1  0
 41 64  1  0
M  CHG  3   5  -1  16   1  19  -1
M  END
>  <EmbedRMS>  (601) 
0.08890014325517065

$$$$

     RDKit          3D

 64 67  0  0  0  0  0  0  0  0999 V2000
   10.2858   43.7723   33.8056 C   0  0  0  0  0  0  0  0  0  0  0  0
   11.4107   43.5878   34.3568 O   0  0  0  0  0  0  0  0  0  0  0  0
    9.3666   42.7315   33.7023 O   0  0  0  0  0  0  0  0  0  0  0  0
    9.8850   41.2342   34.2851 P   0  0  0  0  0  5  0  0  0  0  0  0
   10.3673   41.4677   35.8742 O   0  0  0  0  0  1  0  0  0  0  0  0
    9.9603   45.1096   33.2395 C   0  0  2  0  0  0  0  0  0  0  0  0
   11.0650   46.0385   33.4887 N   0  0  0  0  0  0  0  0  0  0  0  0
    8.6144   45.6562   33.7688 C   0  0  0  0  0  0  0  0  0  0  0  0
    8.6025   45.8720   35.2548 C   0  0  0  0  0  0  0  0  0  0  0  0
    8.7532   44.7785   36.1114 O   0  0  0  0  0  0  0  0  0  0  0  0
    8.4523   47.0353   35.7185 O   0  0  0  0  0  0  0  0  0  0  0  0
    8.6881   44.8901   37.5281 C   0  0  0  0  0  0  0  0  0  0  0  0
    9.0186   43.5574   38.1461 C   0  0  0  0  0  0  0  0  0  0  0  0
    8.0492   42.5305   38.2968 C   0  0  0  0  0  0  0  0  0  0  0  0
   10.3388   43.3255   38.5727 C   0  0  0  0  0  0  0  0  0  0  0  0
    6.6951   42.6904   37.8359 N   0  0  0  0  0  4  0  0  0  0  0  0
    8.4225   41.3240   38.9175 C   0  0  0  0  0  0  0  0  0  0  0  0
   10.6912   42.1159   39.1724 C   0  0  0  0  0  0  0  0  0  0  0  0
    6.4316   43.3032   36.6330 O   0  0  0  0  0  1  0  0  0  0  0  0
    5.7596   42.1212   38.4355 O   0  0  0  0  0  0  0  0  0  0  0  0
    9.7336   41.1194   39.3499 C   0  0  0  0  0  0  0  0  0  0  0  0
    8.8075   40.1914   34.2093 O   0  0  0  0  0  0  0  0  0  0  0  0
   11.2375   40.7908   33.3697 O   0  0  0  0  0  0  0  0  0  0  0  0
   10.9181   40.6905   31.9963 C   0  0  0  0  0  0  0  0  0  0  0  0
   11.5172   39.3825   31.4414 C   0  0  0  0  0  0  0  0  0  0  0  0
   12.7492   39.0894   32.0758 O   0  0  0  0  0  0  0  0  0  0  0  0
   10.6035   38.1899   31.6660 C   0  0  0  0  0  0  0  0  0  0  0  0
   12.9400   37.6835   32.0277 C   0  0  0  0  0  0  0  0  0  0  0  0
    9.6376   38.0784   30.6475 O   0  0  0  0  0  0  0  0  0  0  0  0
   11.5803   37.0204   31.6937 C   0  0  0  0  0  0  0  0  0  0  0  0
   13.4901   37.2178   33.3238 N   0  0  0  0  0  0  0  0  0  0  0  0
   11.6118   36.3194   30.4681 O   0  0  0  0  0  0  0  0  0  0  0  0
   14.4758   36.3272   33.5731 C   0  0  0  0  0  0  0  0  0  0  0  0
   13.1175   37.6318   34.5689 C   0  0  0  0  0  0  0  0  0  0  0  0
   15.2063   35.6142   32.6742 N   0  0  0  0  0  0  0  0  0  0  0  0
   14.6729   36.2275   34.9185 C   0  0  0  0  0  0  0  0  0  0  0  0
   13.8221   37.0458   35.5784 N   0  0  0  0  0  0  0  0  0  0  0  0
   16.1636   34.7597   33.1549 C   0  0  0  0  0  0  0  0  0  0  0  0
   15.6513   35.3493   35.4133 C   0  0  0  0  0  0  0  0  0  0  0  0
   16.3790   34.6312   34.5044 N   0  0  0  0  0  0  0  0  0  0  0  0
   15.9001   35.1935   36.8091 N   0  0  0  0  0  0  0  0  0  0  0  0
    9.8618   44.9789   32.1394 H   0  0  0  0  0  0  0  0  0  0  0  0
   11.1370   46.2450   34.5118 H   0  0  0  0  0  0  0  0  0  0  0  0
   10.8574   46.9418   33.0036 H   0  0  0  0  0  0  0  0  0  0  0  0
    8.3856   46.6140   33.2520 H   0  0  0  0  0  0  0  0  0  0  0  0
    7.7982   44.9480   33.5091 H   0  0  0  0  0  0  0  0  0  0  0  0
    7.6749   45.2231   37.8393 H   0  0  0  0  0  0  0  0  0  0  0  0
    9.4081   45.6647   37.8734 H   0  0  0  0  0  0  0  0  0  0  0  0
   11.0989   44.0868   38.4462 H   0  0  0  0  0  0  0  0  0  0  0  0
    7.6992   40.5290   39.0482 H   0  0  0  0  0  0  0  0  0  0  0  0
   11.7093   41.9515   39.5010 H   0  0  0  0  0  0  0  0  0  0  0  0
   10.0092   40.1823   39.8162 H   0  0  0  0  0  0  0  0  0  0  0  0
   11.3987   41.5456   31.4746 H   0  0  0  0  0  0  0  0  0  0  0  0
    9.8301   40.7393   31.7565 H   0  0  0  0  0  0  0  0  0  0  0  0
   11.6986   39.5093   30.3491 H   0  0  0  0  0  0  0  0  0  0  0  0
   10.1129   38.2588   32.6665 H   0  0  0  0  0  0  0  0  0  0  0  0
   13.6800   37.4630   31.2266 H   0  0  0  0  0  0  0  0  0  0  0  0
    8.8949   38.6904   30.8894 H   0  0  0  0  0  0  0  0  0  0  0  0
   11.2831   36.3060   32.4930 H   0  0  0  0  0  0  0  0  0  0  0  0
   11.8859   36.9590   29.7593 H   0  0  0  0  0  0  0  0  0  0  0  0
   12.3360   38.3602   34.7443 H   0  0  0  0  0  0  0  0  0  0  0  0
   16.7571   34.1793   32.4621 H   0  0  0  0  0  0  0  0  0  0  0  0
   15.3528   35.7357   37.5140 H   0  0  0  0  0  0  0  0  0  0  0  0
   16.6361   34.5318   37.1416 H   0  0  0  0  0  0  0  0  0  0  0  0
  1  2  2  0
  1  3  1  0
  3  4  1  0
  4  5  1  0
  6  1  1  0
  7  6  1  0
  6  8  1  0
  8  9  1  0
  9 10  1  0
  9 11  2  0
 10 12  1  0
 12 13  1  0
 13 14  2  0
 15 13  1  0
 14 16  1  0
 14 17  1  0
 18 15  2  0
 16 19  1  0
 16 20  2  0
 17 21  2  0
 21 18  1  0
  4 22  2  0
  4 23  1  0
 24 23  1  0
 24 25  1  0
 25 26  1  0
 25 27  1  0
 26 28  1  0
 27 29  1  0
 27 30  1  0
 30 28  1  0
 28 31  1  0
 30 32  1  0
 33 31  1  0
 34 31  1  0
 35 33  2  0
 33 36  1  0
 37 34  2  0
 38 35  1  0
 36 39  2  0
 36 37  1  0
 40 38  2  0
 40 39  1  0
 39 41  1  0
  6 42  1  6
  7 43  1  0
  7 44  1  0
  8 45  1  0
  8 46  1  0
 12 47  1  0
 12 48  1  0
 15 49  1  0
 17 50  1  0
 18 51  1  0
 21 52  1  0
 24 53  1  0
 24 54  1  0
 25 55  1  0
 27 56  1  0
 28 57  1  0
 29 58  1  0
 30 59  1  0
 32 60  1  0
 34 61  1  0
 38 62  1  0
 41 63  1  0
 41 64  1  0
M  CHG  3   5  -1  16   1  19  -1
M  END
>  <EmbedRMS>  (602) 
0.08824163771923536

$$$$

     RDKit          3D

 64 67  0  0  0  0  0  0  0  0999 V2000
   10.2827   43.7716   33.8094 C   0  0  0  0  0  0  0  0  0  0  0  0
   11.4064   43.5821   34.3618 O   0  0  0  0  0  0  0  0  0  0  0  0
    9.3670   42.7290   33.6987 O   0  0  0  0  0  0  0  0  0  0  0  0
    9.8850   41.2328   34.2845 P   0  0  0  0  0  5  0  0  0  0  0  0
   10.3651   41.4694   35.8749 O   0  0  0  0  0  1  0  0  0  0  0  0
    9.9592   45.1183   33.2484 C   0  0  2  0  0  0  0  0  0  0  0  0
   11.0704   46.0446   33.4756 N   0  0  0  0  0  0  0  0  0  0  0  0
    8.6771   45.7006   33.8745 C   0  0  0  0  0  0  0  0  0  0  0  0
    7.4398   45.0772   33.3036 C   0  0  0  0  0  0  0  0  0  0  0  0
    6.8336   44.0085   33.9688 O   0  0  0  0  0  0  0  0  0  0  0  0
    6.9702   45.5056   32.2140 O   0  0  0  0  0  0  0  0  0  0  0  0
    5.6394   43.3911   33.5012 C   0  0  0  0  0  0  0  0  0  0  0  0
    5.3105   42.2106   34.3758 C   0  0  0  0  0  0  0  0  0  0  0  0
    4.6025   42.3465   35.5994 C   0  0  0  0  0  0  0  0  0  0  0  0
    5.7267   40.9334   33.9596 C   0  0  0  0  0  0  0  0  0  0  0  0
    4.1848   43.6309   36.0971 N   0  0  0  0  0  4  0  0  0  0  0  0
    4.2947   41.1915   36.3424 C   0  0  0  0  0  0  0  0  0  0  0  0
    5.4261   39.8032   34.7203 C   0  0  0  0  0  0  0  0  0  0  0  0
    5.0112   44.7257   35.9949 O   0  0  0  0  0  1  0  0  0  0  0  0
    3.1430   43.7288   36.7782 O   0  0  0  0  0  0  0  0  0  0  0  0
    4.7063   39.9312   35.9064 C   0  0  0  0  0  0  0  0  0  0  0  0
    8.8109   40.1873   34.2094 O   0  0  0  0  0  0  0  0  0  0  0  0
   11.2371   40.7905   33.3690 O   0  0  0  0  0  0  0  0  0  0  0  0
   10.9151   40.6897   31.9961 C   0  0  0  0  0  0  0  0  0  0  0  0
   11.5267   39.3898   31.4375 C   0  0  0  0  0  0  0  0  0  0  0  0
   12.7505   39.0916   32.0839 O   0  0  0  0  0  0  0  0  0  0  0  0
   10.6119   38.1916   31.6453 C   0  0  0  0  0  0  0  0  0  0  0  0
   12.9427   37.6853   32.0295 C   0  0  0  0  0  0  0  0  0  0  0  0
    9.6066   38.0858   30.6604 O   0  0  0  0  0  0  0  0  0  0  0  0
   11.5843   37.0186   31.6880 C   0  0  0  0  0  0  0  0  0  0  0  0
   13.4898   37.2164   33.3250 N   0  0  0  0  0  0  0  0  0  0  0  0
   11.6199   36.3063   30.4693 O   0  0  0  0  0  0  0  0  0  0  0  0
   14.4758   36.3264   33.5738 C   0  0  0  0  0  0  0  0  0  0  0  0
   13.1175   37.6307   34.5699 C   0  0  0  0  0  0  0  0  0  0  0  0
   15.2065   35.6139   32.6746 N   0  0  0  0  0  0  0  0  0  0  0  0
   14.6731   36.2268   34.9190 C   0  0  0  0  0  0  0  0  0  0  0  0
   13.8224   37.0450   35.5792 N   0  0  0  0  0  0  0  0  0  0  0  0
   16.1640   34.7596   33.1551 C   0  0  0  0  0  0  0  0  0  0  0  0
   15.6517   35.3489   35.4136 C   0  0  0  0  0  0  0  0  0  0  0  0
   16.3795   34.6310   34.5045 N   0  0  0  0  0  0  0  0  0  0  0  0
   15.9006   35.1931   36.8094 N   0  0  0  0  0  0  0  0  0  0  0  0
    9.8158   45.0150   32.1496 H   0  0  0  0  0  0  0  0  0  0  0  0
   11.9255   45.6924   32.9854 H   0  0  0  0  0  0  0  0  0  0  0  0
   11.2783   46.1156   34.4994 H   0  0  0  0  0  0  0  0  0  0  0  0
    8.6340   46.7945   33.6777 H   0  0  0  0  0  0  0  0  0  0  0  0
    8.6897   45.5658   34.9785 H   0  0  0  0  0  0  0  0  0  0  0  0
    4.8033   44.1229   33.5040 H   0  0  0  0  0  0  0  0  0  0  0  0
    5.7803   43.0622   32.4477 H   0  0  0  0  0  0  0  0  0  0  0  0
    6.2812   40.8101   33.0372 H   0  0  0  0  0  0  0  0  0  0  0  0
    3.7506   41.2695   37.2752 H   0  0  0  0  0  0  0  0  0  0  0  0
    5.7498   38.8255   34.3871 H   0  0  0  0  0  0  0  0  0  0  0  0
    4.4717   39.0526   36.4933 H   0  0  0  0  0  0  0  0  0  0  0  0
    9.8247   40.7187   31.7593 H   0  0  0  0  0  0  0  0  0  0  0  0
   11.3815   41.5526   31.4745 H   0  0  0  0  0  0  0  0  0  0  0  0
   11.7314   39.5339   30.3521 H   0  0  0  0  0  0  0  0  0  0  0  0
   10.1211   38.2682   32.6414 H   0  0  0  0  0  0  0  0  0  0  0  0
   13.6880   37.4708   31.2319 H   0  0  0  0  0  0  0  0  0  0  0  0
   10.0253   38.1753   29.7658 H   0  0  0  0  0  0  0  0  0  0  0  0
   11.2794   36.3124   32.4916 H   0  0  0  0  0  0  0  0  0  0  0  0
   11.9868   36.9101   29.7715 H   0  0  0  0  0  0  0  0  0  0  0  0
   12.3364   38.3595   34.7453 H   0  0  0  0  0  0  0  0  0  0  0  0
   16.7576   34.1795   32.4622 H   0  0  0  0  0  0  0  0  0  0  0  0
   15.3532   35.7351   37.5143 H   0  0  0  0  0  0  0  0  0  0  0  0
   16.6368   34.5316   37.1418 H   0  0  0  0  0  0  0  0  0  0  0  0
  1  2  2  0
  1  3  1  0
  3  4  1  0
  4  5  1  0
  6  1  1  0
  7  6  1  0
  6  8  1  0
  8  9  1  0
  9 10  1  0
  9 11  2  0
 10 12  1  0
 12 13  1  0
 13 14  2  0
 15 13  1  0
 14 16  1  0
 14 17  1  0
 18 15  2  0
 16 19  1  0
 16 20  2  0
 17 21  2  0
 21 18  1  0
  4 22  2  0
  4 23  1  0
 24 23  1  0
 24 25  1  0
 25 26  1  0
 25 27  1  0
 26 28  1  0
 27 29  1  0
 27 30  1  0
 30 28  1  0
 28 31  1  0
 30 32  1  0
 33 31  1  0
 34 31  1  0
 35 33  2  0
 33 36  1  0
 37 34  2  0
 38 35  1  0
 36 39  2  0
 36 37  1  0
 40 38  2  0
 40 39  1  0
 39 41  1  0
  6 42  1  6
  7 43  1  0
  7 44  1  0
  8 45  1  0
  8 46  1  0
 12 47  1  0
 12 48  1  0
 15 49  1  0
 17 50  1  0
 18 51  1  0
 21 52  1  0
 24 53  1  0
 24 54  1  0
 25 55  1  0
 27 56  1  0
 28 57  1  0
 29 58  1  0
 30 59  1  0
 32 60  1  0
 34 61  1  0
 38 62  1  0
 41 63  1  0
 41 64  1  0
M  CHG  3   5  -1  16   1  19  -1
M  END
>  <EmbedRMS>  (603) 
0.08731394285747487

$$$$

     RDKit          3D

 64 67  0  0  0  0  0  0  0  0999 V2000
   10.2874   43.7710   33.8021 C   0  0  0  0  0  0  0  0  0  0  0  0
   11.4095   43.5878   34.3593 O   0  0  0  0  0  0  0  0  0  0  0  0
    9.3683   42.7303   33.6977 O   0  0  0  0  0  0  0  0  0  0  0  0
    9.8857   41.2340   34.2838 P   0  0  0  0  0  5  0  0  0  0  0  0
   10.3649   41.4710   35.8746 O   0  0  0  0  0  1  0  0  0  0  0  0
    9.9519   45.1155   33.2558 C   0  0  2  0  0  0  0  0  0  0  0  0
   11.0707   46.0334   33.4778 N   0  0  0  0  0  0  0  0  0  0  0  0
    8.6626   45.6645   33.9001 C   0  0  0  0  0  0  0  0  0  0  0  0
    8.7968   45.8341   35.3843 C   0  0  0  0  0  0  0  0  0  0  0  0
    8.5511   44.7417   36.2235 O   0  0  0  0  0  0  0  0  0  0  0  0
    9.1656   46.9430   35.8578 O   0  0  0  0  0  0  0  0  0  0  0  0
    8.6960   44.7882   37.6419 C   0  0  0  0  0  0  0  0  0  0  0  0
    7.6236   45.6525   38.2652 C   0  0  0  0  0  0  0  0  0  0  0  0
    7.9112   46.6641   39.2183 C   0  0  0  0  0  0  0  0  0  0  0  0
    6.2815   45.3653   37.9561 C   0  0  0  0  0  0  0  0  0  0  0  0
    9.2585   47.0087   39.5726 N   0  0  0  0  0  4  0  0  0  0  0  0
    6.8505   47.3499   39.8354 C   0  0  0  0  0  0  0  0  0  0  0  0
    5.2423   46.0691   38.5663 C   0  0  0  0  0  0  0  0  0  0  0  0
   10.1482   47.3933   38.5968 O   0  0  0  0  0  1  0  0  0  0  0  0
    9.5531   47.2101   40.7688 O   0  0  0  0  0  0  0  0  0  0  0  0
    5.5261   47.0576   39.5068 C   0  0  0  0  0  0  0  0  0  0  0  0
    8.8080   40.1913   34.2081 O   0  0  0  0  0  0  0  0  0  0  0  0
   11.2385   40.7893   33.3692 O   0  0  0  0  0  0  0  0  0  0  0  0
   10.9198   40.6893   31.9952 C   0  0  0  0  0  0  0  0  0  0  0  0
   11.5172   39.3801   31.4398 C   0  0  0  0  0  0  0  0  0  0  0  0
   12.7480   39.0860   32.0732 O   0  0  0  0  0  0  0  0  0  0  0  0
   10.6032   38.1891   31.6666 C   0  0  0  0  0  0  0  0  0  0  0  0
   12.9336   37.6795   32.0279 C   0  0  0  0  0  0  0  0  0  0  0  0
    9.6397   38.0777   30.6456 O   0  0  0  0  0  0  0  0  0  0  0  0
   11.5739   37.0154   31.7057 C   0  0  0  0  0  0  0  0  0  0  0  0
   13.4903   37.2177   33.3231 N   0  0  0  0  0  0  0  0  0  0  0  0
   11.6211   36.3376   30.4695 O   0  0  0  0  0  0  0  0  0  0  0  0
   14.4761   36.3273   33.5725 C   0  0  0  0  0  0  0  0  0  0  0  0
   13.1178   37.6316   34.5684 C   0  0  0  0  0  0  0  0  0  0  0  0
   15.2063   35.6139   32.6737 N   0  0  0  0  0  0  0  0  0  0  0  0
   14.6733   36.2277   34.9180 C   0  0  0  0  0  0  0  0  0  0  0  0
   13.8225   37.0459   35.5779 N   0  0  0  0  0  0  0  0  0  0  0  0
   16.1636   34.7594   33.1546 C   0  0  0  0  0  0  0  0  0  0  0  0
   15.6515   35.3494   35.4129 C   0  0  0  0  0  0  0  0  0  0  0  0
   16.3791   34.6311   34.5041 N   0  0  0  0  0  0  0  0  0  0  0  0
   15.9001   35.1935   36.8088 N   0  0  0  0  0  0  0  0  0  0  0  0
    9.7772   45.0098   32.1614 H   0  0  0  0  0  0  0  0  0  0  0  0
   11.8803   45.7139   32.8964 H   0  0  0  0  0  0  0  0  0  0  0  0
   10.8082   46.9725   33.0988 H   0  0  0  0  0  0  0  0  0  0  0  0
    8.4045   46.6424   33.4381 H   0  0  0  0  0  0  0  0  0  0  0  0
    7.8157   44.9758   33.6898 H   0  0  0  0  0  0  0  0  0  0  0  0
    9.7245   45.1079   37.8972 H   0  0  0  0  0  0  0  0  0  0  0  0
    8.5814   43.7570   38.0370 H   0  0  0  0  0  0  0  0  0  0  0  0
    6.0389   44.5835   37.2464 H   0  0  0  0  0  0  0  0  0  0  0  0
    7.0533   48.1251   40.5638 H   0  0  0  0  0  0  0  0  0  0  0  0
    4.2143   45.8394   38.3173 H   0  0  0  0  0  0  0  0  0  0  0  0
    4.7185   47.5982   39.9832 H   0  0  0  0  0  0  0  0  0  0  0  0
    9.8320   40.7398   31.7548 H   0  0  0  0  0  0  0  0  0  0  0  0
   11.4018   41.5437   31.4738 H   0  0  0  0  0  0  0  0  0  0  0  0
   11.6983   39.5044   30.3471 H   0  0  0  0  0  0  0  0  0  0  0  0
   10.1090   38.2632   32.6649 H   0  0  0  0  0  0  0  0  0  0  0  0
   13.6656   37.4539   31.2207 H   0  0  0  0  0  0  0  0  0  0  0  0
    8.8966   38.6902   30.8851 H   0  0  0  0  0  0  0  0  0  0  0  0
   11.2846   36.3060   32.5175 H   0  0  0  0  0  0  0  0  0  0  0  0
   10.8523   35.7095   30.4590 H   0  0  0  0  0  0  0  0  0  0  0  0
   12.3353   38.3588   34.7439 H   0  0  0  0  0  0  0  0  0  0  0  0
   16.7570   34.1788   32.4619 H   0  0  0  0  0  0  0  0  0  0  0  0
   15.3529   35.7359   37.5136 H   0  0  0  0  0  0  0  0  0  0  0  0
   16.6360   34.5317   37.1414 H   0  0  0  0  0  0  0  0  0  0  0  0
  1  2  2  0
  1  3  1  0
  3  4  1  0
  4  5  1  0
  6  1  1  0
  7  6  1  0
  6  8  1  0
  8  9  1  0
  9 10  1  0
  9 11  2  0
 10 12  1  0
 12 13  1  0
 13 14  2  0
 15 13  1  0
 14 16  1  0
 14 17  1  0
 18 15  2  0
 16 19  1  0
 16 20  2  0
 17 21  2  0
 21 18  1  0
  4 22  2  0
  4 23  1  0
 24 23  1  0
 24 25  1  0
 25 26  1  0
 25 27  1  0
 26 28  1  0
 27 29  1  0
 27 30  1  0
 30 28  1  0
 28 31  1  0
 30 32  1  0
 33 31  1  0
 34 31  1  0
 35 33  2  0
 33 36  1  0
 37 34  2  0
 38 35  1  0
 36 39  2  0
 36 37  1  0
 40 38  2  0
 40 39  1  0
 39 41  1  0
  6 42  1  6
  7 43  1  0
  7 44  1  0
  8 45  1  0
  8 46  1  0
 12 47  1  0
 12 48  1  0
 15 49  1  0
 17 50  1  0
 18 51  1  0
 21 52  1  0
 24 53  1  0
 24 54  1  0
 25 55  1  0
 27 56  1  0
 28 57  1  0
 29 58  1  0
 30 59  1  0
 32 60  1  0
 34 61  1  0
 38 62  1  0
 41 63  1  0
 41 64  1  0
M  CHG  3   5  -1  16   1  19  -1
M  END
>  <EmbedRMS>  (604) 
0.08947112601319197

$$$$

     RDKit          3D

 64 67  0  0  0  0  0  0  0  0999 V2000
   10.2810   43.7759   33.8100 C   0  0  0  0  0  0  0  0  0  0  0  0
   11.4070   43.5918   34.3595 O   0  0  0  0  0  0  0  0  0  0  0  0
    9.3684   42.7299   33.7001 O   0  0  0  0  0  0  0  0  0  0  0  0
    9.8867   41.2338   34.2846 P   0  0  0  0  0  5  0  0  0  0  0  0
   10.3662   41.4697   35.8752 O   0  0  0  0  0  1  0  0  0  0  0  0
    9.9527   45.1156   33.2444 C   0  0  2  0  0  0  0  0  0  0  0  0
   11.0742   46.0263   33.4817 N   0  0  0  0  0  0  0  0  0  0  0  0
    8.6531   45.6902   33.8507 C   0  0  0  0  0  0  0  0  0  0  0  0
    7.4422   44.9243   33.4117 C   0  0  0  0  0  0  0  0  0  0  0  0
    7.0855   44.9158   32.0583 O   0  0  0  0  0  0  0  0  0  0  0  0
    6.7618   44.2861   34.2610 O   0  0  0  0  0  0  0  0  0  0  0  0
    5.9698   44.1844   31.5505 C   0  0  0  0  0  0  0  0  0  0  0  0
    4.6545   44.7998   31.9811 C   0  0  0  0  0  0  0  0  0  0  0  0
    3.4969   44.0079   32.2069 C   0  0  0  0  0  0  0  0  0  0  0  0
    4.5673   46.1969   32.1378 C   0  0  0  0  0  0  0  0  0  0  0  0
    3.4850   42.5919   31.9585 N   0  0  0  0  0  4  0  0  0  0  0  0
    2.3222   44.6248   32.6715 C   0  0  0  0  0  0  0  0  0  0  0  0
    3.3852   46.7922   32.5802 C   0  0  0  0  0  0  0  0  0  0  0  0
    2.7004   41.7668   32.7310 O   0  0  0  0  0  1  0  0  0  0  0  0
    4.0078   42.1287   30.9240 O   0  0  0  0  0  0  0  0  0  0  0  0
    2.2689   46.0065   32.8586 C   0  0  0  0  0  0  0  0  0  0  0  0
    8.8090   40.1912   34.2080 O   0  0  0  0  0  0  0  0  0  0  0  0
   11.2390   40.7907   33.3694 O   0  0  0  0  0  0  0  0  0  0  0  0
   10.9189   40.6905   31.9961 C   0  0  0  0  0  0  0  0  0  0  0  0
   11.5175   39.3824   31.4411 C   0  0  0  0  0  0  0  0  0  0  0  0
   12.7494   39.0892   32.0754 O   0  0  0  0  0  0  0  0  0  0  0  0
   10.6035   38.1900   31.6659 C   0  0  0  0  0  0  0  0  0  0  0  0
   12.9400   37.6833   32.0276 C   0  0  0  0  0  0  0  0  0  0  0  0
    9.6375   38.0786   30.6474 O   0  0  0  0  0  0  0  0  0  0  0  0
   11.5803   37.0204   31.6937 C   0  0  0  0  0  0  0  0  0  0  0  0
   13.4901   37.2177   33.3237 N   0  0  0  0  0  0  0  0  0  0  0  0
   11.6117   36.3193   30.4680 O   0  0  0  0  0  0  0  0  0  0  0  0
   14.4758   36.3271   33.5731 C   0  0  0  0  0  0  0  0  0  0  0  0
   13.1175   37.6317   34.5688 C   0  0  0  0  0  0  0  0  0  0  0  0
   15.2064   35.6142   32.6742 N   0  0  0  0  0  0  0  0  0  0  0  0
   14.6729   36.2274   34.9184 C   0  0  0  0  0  0  0  0  0  0  0  0
   13.8221   37.0457   35.5783 N   0  0  0  0  0  0  0  0  0  0  0  0
   16.1637   34.7597   33.1549 C   0  0  0  0  0  0  0  0  0  0  0  0
   15.6514   35.3493   35.4132 C   0  0  0  0  0  0  0  0  0  0  0  0
   16.3791   34.6312   34.5044 N   0  0  0  0  0  0  0  0  0  0  0  0
   15.9001   35.1935   36.8091 N   0  0  0  0  0  0  0  0  0  0  0  0
    9.8259   44.9988   32.1450 H   0  0  0  0  0  0  0  0  0  0  0  0
   11.1097   46.2834   34.4960 H   0  0  0  0  0  0  0  0  0  0  0  0
   10.9075   46.9085   32.9446 H   0  0  0  0  0  0  0  0  0  0  0  0
    8.5251   46.7430   33.5189 H   0  0  0  0  0  0  0  0  0  0  0  0
    8.7204   45.6945   34.9614 H   0  0  0  0  0  0  0  0  0  0  0  0
    6.0587   43.1329   31.8968 H   0  0  0  0  0  0  0  0  0  0  0  0
    6.0164   44.1896   30.4416 H   0  0  0  0  0  0  0  0  0  0  0  0
    5.4212   46.8301   31.9317 H   0  0  0  0  0  0  0  0  0  0  0  0
    1.4338   44.0362   32.8620 H   0  0  0  0  0  0  0  0  0  0  0  0
    3.3364   47.8656   32.7107 H   0  0  0  0  0  0  0  0  0  0  0  0
    1.3544   46.4705   33.2049 H   0  0  0  0  0  0  0  0  0  0  0  0
    9.8308   40.7397   31.7564 H   0  0  0  0  0  0  0  0  0  0  0  0
   11.3994   41.5454   31.4741 H   0  0  0  0  0  0  0  0  0  0  0  0
   11.6988   39.5091   30.3488 H   0  0  0  0  0  0  0  0  0  0  0  0
   10.1130   38.2590   32.6663 H   0  0  0  0  0  0  0  0  0  0  0  0
   13.6800   37.4626   31.2265 H   0  0  0  0  0  0  0  0  0  0  0  0
    8.8954   38.6914   30.8888 H   0  0  0  0  0  0  0  0  0  0  0  0
   11.2829   36.3060   32.4929 H   0  0  0  0  0  0  0  0  0  0  0  0
   11.8858   36.9589   29.7593 H   0  0  0  0  0  0  0  0  0  0  0  0
   12.3360   38.3600   34.7441 H   0  0  0  0  0  0  0  0  0  0  0  0
   16.7572   34.1793   32.4621 H   0  0  0  0  0  0  0  0  0  0  0  0
   15.3528   35.7357   37.5139 H   0  0  0  0  0  0  0  0  0  0  0  0
   16.6362   34.5318   37.1416 H   0  0  0  0  0  0  0  0  0  0  0  0
  1  2  2  0
  1  3  1  0
  3  4  1  0
  4  5  1  0
  6  1  1  0
  7  6  1  0
  6  8  1  0
  8  9  1  0
  9 10  1  0
  9 11  2  0
 10 12  1  0
 12 13  1  0
 13 14  2  0
 15 13  1  0
 14 16  1  0
 14 17  1  0
 18 15  2  0
 16 19  1  0
 16 20  2  0
 17 21  2  0
 21 18  1  0
  4 22  2  0
  4 23  1  0
 24 23  1  0
 24 25  1  0
 25 26  1  0
 25 27  1  0
 26 28  1  0
 27 29  1  0
 27 30  1  0
 30 28  1  0
 28 31  1  0
 30 32  1  0
 33 31  1  0
 34 31  1  0
 35 33  2  0
 33 36  1  0
 37 34  2  0
 38 35  1  0
 36 39  2  0
 36 37  1  0
 40 38  2  0
 40 39  1  0
 39 41  1  0
  6 42  1  6
  7 43  1  0
  7 44  1  0
  8 45  1  0
  8 46  1  0
 12 47  1  0
 12 48  1  0
 15 49  1  0
 17 50  1  0
 18 51  1  0
 21 52  1  0
 24 53  1  0
 24 54  1  0
 25 55  1  0
 27 56  1  0
 28 57  1  0
 29 58  1  0
 30 59  1  0
 32 60  1  0
 34 61  1  0
 38 62  1  0
 41 63  1  0
 41 64  1  0
M  CHG  3   5  -1  16   1  19  -1
M  END
>  <EmbedRMS>  (605) 
0.088274626822401

$$$$

     RDKit          3D

 64 67  0  0  0  0  0  0  0  0999 V2000
   10.2891   43.7675   33.8054 C   0  0  0  0  0  0  0  0  0  0  0  0
   11.4122   43.5784   34.3583 O   0  0  0  0  0  0  0  0  0  0  0  0
    9.3672   42.7299   33.7001 O   0  0  0  0  0  0  0  0  0  0  0  0
    9.8843   41.2327   34.2841 P   0  0  0  0  0  5  0  0  0  0  0  0
   10.3642   41.4682   35.8745 O   0  0  0  0  0  1  0  0  0  0  0  0
    9.9610   45.1140   33.2525 C   0  0  2  0  0  0  0  0  0  0  0  0
   11.0630   46.0527   33.4753 N   0  0  0  0  0  0  0  0  0  0  0  0
    8.6463   45.6743   33.8331 C   0  0  0  0  0  0  0  0  0  0  0  0
    8.6149   45.6463   35.3333 C   0  0  0  0  0  0  0  0  0  0  0  0
    9.2723   46.6443   36.0608 O   0  0  0  0  0  0  0  0  0  0  0  0
    8.0314   44.6979   35.9258 O   0  0  0  0  0  0  0  0  0  0  0  0
    9.4908   46.5622   37.4676 C   0  0  0  0  0  0  0  0  0  0  0  0
   10.5412   45.5163   37.7647 C   0  0  0  0  0  0  0  0  0  0  0  0
   10.2325   44.2616   38.3503 C   0  0  0  0  0  0  0  0  0  0  0  0
   11.8552   45.7632   37.3291 C   0  0  0  0  0  0  0  0  0  0  0  0
    8.9228   43.9676   38.8566 N   0  0  0  0  0  4  0  0  0  0  0  0
   11.2367   43.2834   38.4519 C   0  0  0  0  0  0  0  0  0  0  0  0
   12.8427   44.7846   37.4500 C   0  0  0  0  0  0  0  0  0  0  0  0
    8.3530   44.7925   39.7984 O   0  0  0  0  0  1  0  0  0  0  0  0
    8.4141   42.8466   38.6497 O   0  0  0  0  0  0  0  0  0  0  0  0
   12.5322   43.5439   38.0036 C   0  0  0  0  0  0  0  0  0  0  0  0
    8.8067   40.1902   34.2078 O   0  0  0  0  0  0  0  0  0  0  0  0
   11.2373   40.7891   33.3692 O   0  0  0  0  0  0  0  0  0  0  0  0
   10.9187   40.6887   31.9953 C   0  0  0  0  0  0  0  0  0  0  0  0
   11.5180   39.3801   31.4399 C   0  0  0  0  0  0  0  0  0  0  0  0
   12.7484   39.0876   32.0750 O   0  0  0  0  0  0  0  0  0  0  0  0
   10.6053   38.1875   31.6657 C   0  0  0  0  0  0  0  0  0  0  0  0
   12.9361   37.6817   32.0289 C   0  0  0  0  0  0  0  0  0  0  0  0
    9.6423   38.0738   30.6445 O   0  0  0  0  0  0  0  0  0  0  0  0
   11.5765   37.0159   31.7047 C   0  0  0  0  0  0  0  0  0  0  0  0
   13.4908   37.2183   33.3237 N   0  0  0  0  0  0  0  0  0  0  0  0
   11.6103   36.3399   30.4681 O   0  0  0  0  0  0  0  0  0  0  0  0
   14.4761   36.3274   33.5728 C   0  0  0  0  0  0  0  0  0  0  0  0
   13.1182   37.6320   34.5690 C   0  0  0  0  0  0  0  0  0  0  0  0
   15.2063   35.6141   32.6739 N   0  0  0  0  0  0  0  0  0  0  0  0
   14.6733   36.2276   34.9183 C   0  0  0  0  0  0  0  0  0  0  0  0
   13.8226   37.0458   35.5784 N   0  0  0  0  0  0  0  0  0  0  0  0
   16.1635   34.7595   33.1546 C   0  0  0  0  0  0  0  0  0  0  0  0
   15.6515   35.3492   35.4130 C   0  0  0  0  0  0  0  0  0  0  0  0
   16.3790   34.6310   34.5041 N   0  0  0  0  0  0  0  0  0  0  0  0
   15.9002   35.1934   36.8089 N   0  0  0  0  0  0  0  0  0  0  0  0
    9.8203   45.0017   32.1549 H   0  0  0  0  0  0  0  0  0  0  0  0
   11.3108   46.0935   34.4899 H   0  0  0  0  0  0  0  0  0  0  0  0
   11.9064   45.7238   32.9501 H   0  0  0  0  0  0  0  0  0  0  0  0
    7.7911   45.0824   33.4388 H   0  0  0  0  0  0  0  0  0  0  0  0
    8.5051   46.7208   33.4869 H   0  0  0  0  0  0  0  0  0  0  0  0
    8.5268   46.3753   37.9781 H   0  0  0  0  0  0  0  0  0  0  0  0
    9.8558   47.5480   37.8258 H   0  0  0  0  0  0  0  0  0  0  0  0
   12.1093   46.7114   36.8711 H   0  0  0  0  0  0  0  0  0  0  0  0
   11.0162   42.3196   38.8935 H   0  0  0  0  0  0  0  0  0  0  0  0
   13.8478   44.9848   37.1019 H   0  0  0  0  0  0  0  0  0  0  0  0
   13.2977   42.7837   38.0904 H   0  0  0  0  0  0  0  0  0  0  0  0
    9.8308   40.7376   31.7551 H   0  0  0  0  0  0  0  0  0  0  0  0
   11.3995   41.5437   31.4738 H   0  0  0  0  0  0  0  0  0  0  0  0
   11.7001   39.5049   30.3475 H   0  0  0  0  0  0  0  0  0  0  0  0
   10.1103   38.2618   32.6637 H   0  0  0  0  0  0  0  0  0  0  0  0
   13.6696   37.4587   31.2223 H   0  0  0  0  0  0  0  0  0  0  0  0
    8.9001   38.6883   30.8813 H   0  0  0  0  0  0  0  0  0  0  0  0
   11.2690   36.3069   32.5092 H   0  0  0  0  0  0  0  0  0  0  0  0
   12.1427   35.5152   30.6154 H   0  0  0  0  0  0  0  0  0  0  0  0
   12.3361   38.3597   34.7446 H   0  0  0  0  0  0  0  0  0  0  0  0
   16.7568   34.1789   32.4618 H   0  0  0  0  0  0  0  0  0  0  0  0
   16.6361   34.5315   37.1414 H   0  0  0  0  0  0  0  0  0  0  0  0
   15.3531   35.7357   37.5138 H   0  0  0  0  0  0  0  0  0  0  0  0
  1  2  2  0
  1  3  1  0
  3  4  1  0
  4  5  1  0
  6  1  1  0
  7  6  1  0
  6  8  1  0
  8  9  1  0
  9 10  1  0
  9 11  2  0
 10 12  1  0
 12 13  1  0
 13 14  2  0
 15 13  1  0
 14 16  1  0
 14 17  1  0
 18 15  2  0
 16 19  1  0
 16 20  2  0
 17 21  2  0
 21 18  1  0
  4 22  2  0
  4 23  1  0
 24 23  1  0
 24 25  1  0
 25 26  1  0
 25 27  1  0
 26 28  1  0
 27 29  1  0
 27 30  1  0
 30 28  1  0
 28 31  1  0
 30 32  1  0
 33 31  1  0
 34 31  1  0
 35 33  2  0
 33 36  1  0
 37 34  2  0
 38 35  1  0
 36 39  2  0
 36 37  1  0
 40 38  2  0
 40 39  1  0
 39 41  1  0
  6 42  1  6
  7 43  1  0
  7 44  1  0
  8 45  1  0
  8 46  1  0
 12 47  1  0
 12 48  1  0
 15 49  1  0
 17 50  1  0
 18 51  1  0
 21 52  1  0
 24 53  1  0
 24 54  1  0
 25 55  1  0
 27 56  1  0
 28 57  1  0
 29 58  1  0
 30 59  1  0
 32 60  1  0
 34 61  1  0
 38 62  1  0
 41 63  1  0
 41 64  1  0
M  CHG  3   5  -1  16   1  19  -1
M  END
>  <EmbedRMS>  (606) 
0.08995251938804193

$$$$

     RDKit          3D

 64 67  0  0  0  0  0  0  0  0999 V2000
   10.2892   43.7674   33.8057 C   0  0  0  0  0  0  0  0  0  0  0  0
   11.4125   43.5780   34.3580 O   0  0  0  0  0  0  0  0  0  0  0  0
    9.3671   42.7301   33.7003 O   0  0  0  0  0  0  0  0  0  0  0  0
    9.8838   41.2329   34.2845 P   0  0  0  0  0  5  0  0  0  0  0  0
   10.3642   41.4688   35.8746 O   0  0  0  0  0  1  0  0  0  0  0  0
    9.9613   45.1140   33.2535 C   0  0  2  0  0  0  0  0  0  0  0  0
   11.0628   46.0529   33.4746 N   0  0  0  0  0  0  0  0  0  0  0  0
    8.6465   45.6766   33.8319 C   0  0  0  0  0  0  0  0  0  0  0  0
    8.5649   45.5766   35.3289 C   0  0  0  0  0  0  0  0  0  0  0  0
    9.3181   46.4421   36.1308 O   0  0  0  0  0  0  0  0  0  0  0  0
    7.8297   44.6952   35.8521 O   0  0  0  0  0  0  0  0  0  0  0  0
    9.3270   46.3679   37.5557 C   0  0  0  0  0  0  0  0  0  0  0  0
   10.0402   45.1178   38.0232 C   0  0  0  0  0  0  0  0  0  0  0  0
   11.4090   44.8580   37.7276 C   0  0  0  0  0  0  0  0  0  0  0  0
    9.2947   44.1490   38.7215 C   0  0  0  0  0  0  0  0  0  0  0  0
   12.2408   45.7994   37.0218 N   0  0  0  0  0  4  0  0  0  0  0  0
   11.9703   43.6301   38.1242 C   0  0  0  0  0  0  0  0  0  0  0  0
    9.8782   42.9456   39.1164 C   0  0  0  0  0  0  0  0  0  0  0  0
   13.3284   45.3524   36.3068 O   0  0  0  0  0  1  0  0  0  0  0  0
   12.0903   47.0288   37.1691 O   0  0  0  0  0  0  0  0  0  0  0  0
   11.2124   42.6857   38.8162 C   0  0  0  0  0  0  0  0  0  0  0  0
    8.8062   40.1904   34.2087 O   0  0  0  0  0  0  0  0  0  0  0  0
   11.2362   40.7886   33.3692 O   0  0  0  0  0  0  0  0  0  0  0  0
   10.9160   40.6888   31.9957 C   0  0  0  0  0  0  0  0  0  0  0  0
   11.5251   39.3873   31.4366 C   0  0  0  0  0  0  0  0  0  0  0  0
   12.7486   39.0879   32.0803 O   0  0  0  0  0  0  0  0  0  0  0  0
   10.6100   38.1909   31.6470 C   0  0  0  0  0  0  0  0  0  0  0  0
   12.9348   37.6808   32.0292 C   0  0  0  0  0  0  0  0  0  0  0  0
    9.6127   38.0874   30.6546 O   0  0  0  0  0  0  0  0  0  0  0  0
   11.5766   37.0133   31.7025 C   0  0  0  0  0  0  0  0  0  0  0  0
   13.4901   37.2166   33.3237 N   0  0  0  0  0  0  0  0  0  0  0  0
   11.6321   36.3231   30.4741 O   0  0  0  0  0  0  0  0  0  0  0  0
   14.4762   36.3267   33.5728 C   0  0  0  0  0  0  0  0  0  0  0  0
   13.1179   37.6308   34.5689 C   0  0  0  0  0  0  0  0  0  0  0  0
   15.2066   35.6137   32.6739 N   0  0  0  0  0  0  0  0  0  0  0  0
   14.6735   36.2272   34.9183 C   0  0  0  0  0  0  0  0  0  0  0  0
   13.8228   37.0453   35.5784 N   0  0  0  0  0  0  0  0  0  0  0  0
   16.1640   34.7594   33.1547 C   0  0  0  0  0  0  0  0  0  0  0  0
   15.6518   35.3492   35.4131 C   0  0  0  0  0  0  0  0  0  0  0  0
   16.3794   34.6310   34.5042 N   0  0  0  0  0  0  0  0  0  0  0  0
   15.9005   35.1934   36.8090 N   0  0  0  0  0  0  0  0  0  0  0  0
    9.8223   45.0018   32.1557 H   0  0  0  0  0  0  0  0  0  0  0  0
   11.9119   45.7162   32.9637 H   0  0  0  0  0  0  0  0  0  0  0  0
   11.2967   46.1085   34.4909 H   0  0  0  0  0  0  0  0  0  0  0  0
    7.7907   45.1246   33.3839 H   0  0  0  0  0  0  0  0  0  0  0  0
    8.5353   46.7415   33.5344 H   0  0  0  0  0  0  0  0  0  0  0  0
    9.8229   47.2667   37.9730 H   0  0  0  0  0  0  0  0  0  0  0  0
    8.2796   46.4047   37.9282 H   0  0  0  0  0  0  0  0  0  0  0  0
    8.2500   44.3180   38.9518 H   0  0  0  0  0  0  0  0  0  0  0  0
   13.0072   43.4061   37.9093 H   0  0  0  0  0  0  0  0  0  0  0  0
    9.2913   42.2092   39.6498 H   0  0  0  0  0  0  0  0  0  0  0  0
   11.6614   41.7485   39.1189 H   0  0  0  0  0  0  0  0  0  0  0  0
    9.8262   40.7207   31.7576 H   0  0  0  0  0  0  0  0  0  0  0  0
   11.3853   41.5508   31.4750 H   0  0  0  0  0  0  0  0  0  0  0  0
   11.7271   39.5290   30.3503 H   0  0  0  0  0  0  0  0  0  0  0  0
   10.1121   38.2730   32.6389 H   0  0  0  0  0  0  0  0  0  0  0  0
   13.6685   37.4591   31.2224 H   0  0  0  0  0  0  0  0  0  0  0  0
   10.0515   38.1111   29.7647 H   0  0  0  0  0  0  0  0  0  0  0  0
   11.2801   36.3129   32.5195 H   0  0  0  0  0  0  0  0  0  0  0  0
   10.8625   35.6960   30.4645 H   0  0  0  0  0  0  0  0  0  0  0  0
   12.3357   38.3584   34.7445 H   0  0  0  0  0  0  0  0  0  0  0  0
   16.7574   34.1788   32.4620 H   0  0  0  0  0  0  0  0  0  0  0  0
   16.6364   34.5316   37.1417 H   0  0  0  0  0  0  0  0  0  0  0  0
   15.3531   35.7357   37.5138 H   0  0  0  0  0  0  0  0  0  0  0  0
  1  2  2  0
  1  3  1  0
  3  4  1  0
  4  5  1  0
  6  1  1  0
  7  6  1  0
  6  8  1  0
  8  9  1  0
  9 10  1  0
  9 11  2  0
 10 12  1  0
 12 13  1  0
 13 14  2  0
 15 13  1  0
 14 16  1  0
 14 17  1  0
 18 15  2  0
 16 19  1  0
 16 20  2  0
 17 21  2  0
 21 18  1  0
  4 22  2  0
  4 23  1  0
 24 23  1  0
 24 25  1  0
 25 26  1  0
 25 27  1  0
 26 28  1  0
 27 29  1  0
 27 30  1  0
 30 28  1  0
 28 31  1  0
 30 32  1  0
 33 31  1  0
 34 31  1  0
 35 33  2  0
 33 36  1  0
 37 34  2  0
 38 35  1  0
 36 39  2  0
 36 37  1  0
 40 38  2  0
 40 39  1  0
 39 41  1  0
  6 42  1  6
  7 43  1  0
  7 44  1  0
  8 45  1  0
  8 46  1  0
 12 47  1  0
 12 48  1  0
 15 49  1  0
 17 50  1  0
 18 51  1  0
 21 52  1  0
 24 53  1  0
 24 54  1  0
 25 55  1  0
 27 56  1  0
 28 57  1  0
 29 58  1  0
 30 59  1  0
 32 60  1  0
 34 61  1  0
 38 62  1  0
 41 63  1  0
 41 64  1  0
M  CHG  3   5  -1  16   1  19  -1
M  END
>  <EmbedRMS>  (607) 
0.0887718949273835

$$$$

     RDKit          3D

 64 67  0  0  0  0  0  0  0  0999 V2000
   10.2897   43.7673   33.8027 C   0  0  0  0  0  0  0  0  0  0  0  0
   11.4122   43.5786   34.3570 O   0  0  0  0  0  0  0  0  0  0  0  0
    9.3671   42.7297   33.6999 O   0  0  0  0  0  0  0  0  0  0  0  0
    9.8839   41.2329   34.2857 P   0  0  0  0  0  5  0  0  0  0  0  0
   10.3667   41.4687   35.8753 O   0  0  0  0  0  1  0  0  0  0  0  0
    9.9655   45.1120   33.2425 C   0  0  2  0  0  0  0  0  0  0  0  0
   11.0583   46.0563   33.4865 N   0  0  0  0  0  0  0  0  0  0  0  0
    8.6378   45.6669   33.7957 C   0  0  0  0  0  0  0  0  0  0  0  0
    8.6110   45.7161   35.2948 C   0  0  0  0  0  0  0  0  0  0  0  0
    8.3599   44.5410   36.0069 O   0  0  0  0  0  0  0  0  0  0  0  0
    8.8502   46.7981   35.8971 O   0  0  0  0  0  0  0  0  0  0  0  0
    8.3929   44.4672   37.4286 C   0  0  0  0  0  0  0  0  0  0  0  0
    8.1760   43.0434   37.8884 C   0  0  0  0  0  0  0  0  0  0  0  0
    8.7602   42.5505   39.0849 C   0  0  0  0  0  0  0  0  0  0  0  0
    7.3707   42.1821   37.1163 C   0  0  0  0  0  0  0  0  0  0  0  0
    9.5012   43.4075   39.9710 N   0  0  0  0  0  4  0  0  0  0  0  0
    8.5978   41.1942   39.4212 C   0  0  0  0  0  0  0  0  0  0  0  0
    7.2084   40.8439   37.4766 C   0  0  0  0  0  0  0  0  0  0  0  0
    9.0439   44.6734   40.2565 O   0  0  0  0  0  1  0  0  0  0  0  0
   10.4553   42.9493   40.6333 O   0  0  0  0  0  0  0  0  0  0  0  0
    7.8310   40.3478   38.6197 C   0  0  0  0  0  0  0  0  0  0  0  0
    8.8061   40.1905   34.2105 O   0  0  0  0  0  0  0  0  0  0  0  0
   11.2365   40.7887   33.3707 O   0  0  0  0  0  0  0  0  0  0  0  0
   10.9180   40.6901   31.9970 C   0  0  0  0  0  0  0  0  0  0  0  0
   11.5171   39.3824   31.4414 C   0  0  0  0  0  0  0  0  0  0  0  0
   12.7492   39.0894   32.0756 O   0  0  0  0  0  0  0  0  0  0  0  0
   10.6034   38.1898   31.6660 C   0  0  0  0  0  0  0  0  0  0  0  0
   12.9400   37.6835   32.0276 C   0  0  0  0  0  0  0  0  0  0  0  0
    9.6375   38.0784   30.6474 O   0  0  0  0  0  0  0  0  0  0  0  0
   11.5803   37.0204   31.6937 C   0  0  0  0  0  0  0  0  0  0  0  0
   13.4901   37.2178   33.3238 N   0  0  0  0  0  0  0  0  0  0  0  0
   11.6118   36.3193   30.4680 O   0  0  0  0  0  0  0  0  0  0  0  0
   14.4758   36.3272   33.5731 C   0  0  0  0  0  0  0  0  0  0  0  0
   13.1175   37.6318   34.5688 C   0  0  0  0  0  0  0  0  0  0  0  0
   15.2063   35.6142   32.6742 N   0  0  0  0  0  0  0  0  0  0  0  0
   14.6729   36.2275   34.9185 C   0  0  0  0  0  0  0  0  0  0  0  0
   13.8221   37.0458   35.5784 N   0  0  0  0  0  0  0  0  0  0  0  0
   16.1636   34.7597   33.1549 C   0  0  0  0  0  0  0  0  0  0  0  0
   15.6513   35.3493   35.4133 C   0  0  0  0  0  0  0  0  0  0  0  0
   16.3790   34.6312   34.5044 N   0  0  0  0  0  0  0  0  0  0  0  0
   15.9001   35.1935   36.8091 N   0  0  0  0  0  0  0  0  0  0  0  0
    9.8469   44.9970   32.1427 H   0  0  0  0  0  0  0  0  0  0  0  0
   11.9179   45.7264   32.9887 H   0  0  0  0  0  0  0  0  0  0  0  0
   11.2732   46.1088   34.5095 H   0  0  0  0  0  0  0  0  0  0  0  0
    7.7983   45.0268   33.4474 H   0  0  0  0  0  0  0  0  0  0  0  0
    8.4639   46.6853   33.3844 H   0  0  0  0  0  0  0  0  0  0  0  0
    9.3866   44.8310   37.7670 H   0  0  0  0  0  0  0  0  0  0  0  0
    7.5972   45.1148   37.8550 H   0  0  0  0  0  0  0  0  0  0  0  0
    6.8808   42.5380   36.2186 H   0  0  0  0  0  0  0  0  0  0  0  0
    9.0465   40.7962   40.3227 H   0  0  0  0  0  0  0  0  0  0  0  0
    6.6029   40.1887   36.8637 H   0  0  0  0  0  0  0  0  0  0  0  0
    7.7066   39.3084   38.8947 H   0  0  0  0  0  0  0  0  0  0  0  0
   11.3992   41.5456   31.4765 H   0  0  0  0  0  0  0  0  0  0  0  0
    9.8302   40.7392   31.7567 H   0  0  0  0  0  0  0  0  0  0  0  0
   11.6984   39.5096   30.3492 H   0  0  0  0  0  0  0  0  0  0  0  0
   10.1128   38.2586   32.6665 H   0  0  0  0  0  0  0  0  0  0  0  0
   13.6799   37.4629   31.2266 H   0  0  0  0  0  0  0  0  0  0  0  0
    8.8949   38.6903   30.8894 H   0  0  0  0  0  0  0  0  0  0  0  0
   11.2831   36.3059   32.4929 H   0  0  0  0  0  0  0  0  0  0  0  0
   11.8859   36.9590   29.7593 H   0  0  0  0  0  0  0  0  0  0  0  0
   12.3359   38.3600   34.7443 H   0  0  0  0  0  0  0  0  0  0  0  0
   16.7572   34.1793   32.4621 H   0  0  0  0  0  0  0  0  0  0  0  0
   15.3528   35.7357   37.5140 H   0  0  0  0  0  0  0  0  0  0  0  0
   16.6361   34.5318   37.1416 H   0  0  0  0  0  0  0  0  0  0  0  0
  1  2  2  0
  1  3  1  0
  3  4  1  0
  4  5  1  0
  6  1  1  0
  7  6  1  0
  6  8  1  0
  8  9  1  0
  9 10  1  0
  9 11  2  0
 10 12  1  0
 12 13  1  0
 13 14  2  0
 15 13  1  0
 14 16  1  0
 14 17  1  0
 18 15  2  0
 16 19  1  0
 16 20  2  0
 17 21  2  0
 21 18  1  0
  4 22  2  0
  4 23  1  0
 24 23  1  0
 24 25  1  0
 25 26  1  0
 25 27  1  0
 26 28  1  0
 27 29  1  0
 27 30  1  0
 30 28  1  0
 28 31  1  0
 30 32  1  0
 33 31  1  0
 34 31  1  0
 35 33  2  0
 33 36  1  0
 37 34  2  0
 38 35  1  0
 36 39  2  0
 36 37  1  0
 40 38  2  0
 40 39  1  0
 39 41  1  0
  6 42  1  6
  7 43  1  0
  7 44  1  0
  8 45  1  0
  8 46  1  0
 12 47  1  0
 12 48  1  0
 15 49  1  0
 17 50  1  0
 18 51  1  0
 21 52  1  0
 24 53  1  0
 24 54  1  0
 25 55  1  0
 27 56  1  0
 28 57  1  0
 29 58  1  0
 30 59  1  0
 32 60  1  0
 34 61  1  0
 38 62  1  0
 41 63  1  0
 41 64  1  0
M  CHG  3   5  -1  16   1  19  -1
M  END
>  <EmbedRMS>  (608) 
0.0889588144029546

$$$$

     RDKit          3D

 64 67  0  0  0  0  0  0  0  0999 V2000
   10.2847   43.7740   33.8067 C   0  0  0  0  0  0  0  0  0  0  0  0
   11.4069   43.5901   34.3638 O   0  0  0  0  0  0  0  0  0  0  0  0
    9.3682   42.7309   33.6986 O   0  0  0  0  0  0  0  0  0  0  0  0
    9.8863   41.2339   34.2831 P   0  0  0  0  0  5  0  0  0  0  0  0
   10.3659   41.4694   35.8739 O   0  0  0  0  0  1  0  0  0  0  0  0
    9.9496   45.1161   33.2548 C   0  0  2  0  0  0  0  0  0  0  0  0
   11.0749   46.0286   33.4731 N   0  0  0  0  0  0  0  0  0  0  0  0
    8.6776   45.6516   33.9423 C   0  0  0  0  0  0  0  0  0  0  0  0
    8.2018   46.9270   33.3179 C   0  0  0  0  0  0  0  0  0  0  0  0
    8.3191   48.1273   34.0276 O   0  0  0  0  0  0  0  0  0  0  0  0
    7.7133   46.9107   32.1549 O   0  0  0  0  0  0  0  0  0  0  0  0
    7.9853   49.3971   33.4709 C   0  0  0  0  0  0  0  0  0  0  0  0
    9.0119   49.8114   32.4416 C   0  0  0  0  0  0  0  0  0  0  0  0
   10.3976   49.9178   32.7486 C   0  0  0  0  0  0  0  0  0  0  0  0
    8.5811   50.0461   31.1227 C   0  0  0  0  0  0  0  0  0  0  0  0
   10.9109   49.6960   34.0763 N   0  0  0  0  0  4  0  0  0  0  0  0
   11.3028   50.2270   31.7173 C   0  0  0  0  0  0  0  0  0  0  0  0
    9.4963   50.3669   30.1199 C   0  0  0  0  0  0  0  0  0  0  0  0
   12.1999   49.2456   34.2477 O   0  0  0  0  0  1  0  0  0  0  0  0
   10.2655   50.0545   35.0821 O   0  0  0  0  0  0  0  0  0  0  0  0
   10.8545   50.4529   30.4156 C   0  0  0  0  0  0  0  0  0  0  0  0
    8.8086   40.1911   34.2072 O   0  0  0  0  0  0  0  0  0  0  0  0
   11.2388   40.7901   33.3680 O   0  0  0  0  0  0  0  0  0  0  0  0
   10.9191   40.6887   31.9944 C   0  0  0  0  0  0  0  0  0  0  0  0
   11.5182   39.3799   31.4396 C   0  0  0  0  0  0  0  0  0  0  0  0
   12.7485   39.0874   32.0748 O   0  0  0  0  0  0  0  0  0  0  0  0
   10.6054   38.1875   31.6656 C   0  0  0  0  0  0  0  0  0  0  0  0
   12.9361   37.6815   32.0288 C   0  0  0  0  0  0  0  0  0  0  0  0
    9.6423   38.0738   30.6445 O   0  0  0  0  0  0  0  0  0  0  0  0
   11.5765   37.0158   31.7046 C   0  0  0  0  0  0  0  0  0  0  0  0
   13.4908   37.2182   33.3237 N   0  0  0  0  0  0  0  0  0  0  0  0
   11.6102   36.3399   30.4680 O   0  0  0  0  0  0  0  0  0  0  0  0
   14.4762   36.3273   33.5728 C   0  0  0  0  0  0  0  0  0  0  0  0
   13.1181   37.6318   34.5689 C   0  0  0  0  0  0  0  0  0  0  0  0
   15.2063   35.6140   32.6739 N   0  0  0  0  0  0  0  0  0  0  0  0
   14.6733   36.2275   34.9182 C   0  0  0  0  0  0  0  0  0  0  0  0
   13.8226   37.0457   35.5783 N   0  0  0  0  0  0  0  0  0  0  0  0
   16.1636   34.7594   33.1546 C   0  0  0  0  0  0  0  0  0  0  0  0
   15.6515   35.3492   35.4130 C   0  0  0  0  0  0  0  0  0  0  0  0
   16.3791   34.6310   34.5041 N   0  0  0  0  0  0  0  0  0  0  0  0
   15.9002   35.1933   36.8089 N   0  0  0  0  0  0  0  0  0  0  0  0
    9.7644   45.0047   32.1622 H   0  0  0  0  0  0  0  0  0  0  0  0
   11.8990   45.6725   32.9349 H   0  0  0  0  0  0  0  0  0  0  0  0
   10.8479   46.9491   33.0335 H   0  0  0  0  0  0  0  0  0  0  0  0
    7.8577   44.9047   33.8620 H   0  0  0  0  0  0  0  0  0  0  0  0
    8.8769   45.8206   35.0234 H   0  0  0  0  0  0  0  0  0  0  0  0
    6.9619   49.3506   33.0376 H   0  0  0  0  0  0  0  0  0  0  0  0
    7.9419   50.1553   34.2788 H   0  0  0  0  0  0  0  0  0  0  0  0
    7.5325   49.9685   30.8632 H   0  0  0  0  0  0  0  0  0  0  0  0
   12.3623   50.3085   31.9243 H   0  0  0  0  0  0  0  0  0  0  0  0
    9.1515   50.5417   29.1089 H   0  0  0  0  0  0  0  0  0  0  0  0
   11.5629   50.6973   29.6345 H   0  0  0  0  0  0  0  0  0  0  0  0
    9.8311   40.7374   31.7547 H   0  0  0  0  0  0  0  0  0  0  0  0
   11.3996   41.5434   31.4720 H   0  0  0  0  0  0  0  0  0  0  0  0
   11.7004   39.5043   30.3471 H   0  0  0  0  0  0  0  0  0  0  0  0
   10.1105   38.2620   32.6636 H   0  0  0  0  0  0  0  0  0  0  0  0
   13.6696   37.4584   31.2222 H   0  0  0  0  0  0  0  0  0  0  0  0
    8.9001   38.6883   30.8814 H   0  0  0  0  0  0  0  0  0  0  0  0
   11.2689   36.3069   32.5091 H   0  0  0  0  0  0  0  0  0  0  0  0
   12.1426   35.5150   30.6153 H   0  0  0  0  0  0  0  0  0  0  0  0
   12.3359   38.3593   34.7445 H   0  0  0  0  0  0  0  0  0  0  0  0
   16.7569   34.1789   32.4618 H   0  0  0  0  0  0  0  0  0  0  0  0
   16.6361   34.5315   37.1414 H   0  0  0  0  0  0  0  0  0  0  0  0
   15.3530   35.7356   37.5138 H   0  0  0  0  0  0  0  0  0  0  0  0
  1  2  2  0
  1  3  1  0
  3  4  1  0
  4  5  1  0
  6  1  1  0
  7  6  1  0
  6  8  1  0
  8  9  1  0
  9 10  1  0
  9 11  2  0
 10 12  1  0
 12 13  1  0
 13 14  2  0
 15 13  1  0
 14 16  1  0
 14 17  1  0
 18 15  2  0
 16 19  1  0
 16 20  2  0
 17 21  2  0
 21 18  1  0
  4 22  2  0
  4 23  1  0
 24 23  1  0
 24 25  1  0
 25 26  1  0
 25 27  1  0
 26 28  1  0
 27 29  1  0
 27 30  1  0
 30 28  1  0
 28 31  1  0
 30 32  1  0
 33 31  1  0
 34 31  1  0
 35 33  2  0
 33 36  1  0
 37 34  2  0
 38 35  1  0
 36 39  2  0
 36 37  1  0
 40 38  2  0
 40 39  1  0
 39 41  1  0
  6 42  1  6
  7 43  1  0
  7 44  1  0
  8 45  1  0
  8 46  1  0
 12 47  1  0
 12 48  1  0
 15 49  1  0
 17 50  1  0
 18 51  1  0
 21 52  1  0
 24 53  1  0
 24 54  1  0
 25 55  1  0
 27 56  1  0
 28 57  1  0
 29 58  1  0
 30 59  1  0
 32 60  1  0
 34 61  1  0
 38 62  1  0
 41 63  1  0
 41 64  1  0
M  CHG  3   5  -1  16   1  19  -1
M  END
>  <EmbedRMS>  (609) 
0.0894102674079542

$$$$

     RDKit          3D

 64 67  0  0  0  0  0  0  0  0999 V2000
   10.2862   43.7717   33.8043 C   0  0  0  0  0  0  0  0  0  0  0  0
   11.4087   43.5881   34.3607 O   0  0  0  0  0  0  0  0  0  0  0  0
    9.3676   42.7307   33.6989 O   0  0  0  0  0  0  0  0  0  0  0  0
    9.8857   41.2339   34.2836 P   0  0  0  0  0  5  0  0  0  0  0  0
   10.3655   41.4700   35.8742 O   0  0  0  0  0  1  0  0  0  0  0  0
    9.9529   45.1149   33.2539 C   0  0  2  0  0  0  0  0  0  0  0  0
   11.0713   46.0331   33.4767 N   0  0  0  0  0  0  0  0  0  0  0  0
    8.6599   45.6657   33.8896 C   0  0  0  0  0  0  0  0  0  0  0  0
    8.7713   45.8133   35.3788 C   0  0  0  0  0  0  0  0  0  0  0  0
    9.5118   46.8714   35.9123 O   0  0  0  0  0  0  0  0  0  0  0  0
    8.2238   44.9654   36.1356 O   0  0  0  0  0  0  0  0  0  0  0  0
    9.6794   47.0631   37.3126 C   0  0  0  0  0  0  0  0  0  0  0  0
   10.5937   48.2363   37.5493 C   0  0  0  0  0  0  0  0  0  0  0  0
   12.0093   48.1064   37.5617 C   0  0  0  0  0  0  0  0  0  0  0  0
   10.0173   49.5026   37.7549 C   0  0  0  0  0  0  0  0  0  0  0  0
   12.6651   46.8504   37.3079 N   0  0  0  0  0  4  0  0  0  0  0  0
   12.7962   49.2389   37.8382 C   0  0  0  0  0  0  0  0  0  0  0  0
   10.8181   50.6164   38.0102 C   0  0  0  0  0  0  0  0  0  0  0  0
   13.8881   46.5867   37.8807 O   0  0  0  0  0  1  0  0  0  0  0  0
   12.2302   46.0679   36.4385 O   0  0  0  0  0  0  0  0  0  0  0  0
   12.2043   50.4833   38.0593 C   0  0  0  0  0  0  0  0  0  0  0  0
    8.8082   40.1911   34.2078 O   0  0  0  0  0  0  0  0  0  0  0  0
   11.2383   40.7899   33.3685 O   0  0  0  0  0  0  0  0  0  0  0  0
   10.9189   40.6887   31.9948 C   0  0  0  0  0  0  0  0  0  0  0  0
   11.5181   39.3800   31.4397 C   0  0  0  0  0  0  0  0  0  0  0  0
   12.7484   39.0875   32.0749 O   0  0  0  0  0  0  0  0  0  0  0  0
   10.6054   38.1875   31.6656 C   0  0  0  0  0  0  0  0  0  0  0  0
   12.9361   37.6816   32.0288 C   0  0  0  0  0  0  0  0  0  0  0  0
    9.6423   38.0738   30.6445 O   0  0  0  0  0  0  0  0  0  0  0  0
   11.5765   37.0158   31.7046 C   0  0  0  0  0  0  0  0  0  0  0  0
   13.4908   37.2183   33.3237 N   0  0  0  0  0  0  0  0  0  0  0  0
   11.6103   36.3399   30.4680 O   0  0  0  0  0  0  0  0  0  0  0  0
   14.4762   36.3274   33.5728 C   0  0  0  0  0  0  0  0  0  0  0  0
   13.1181   37.6318   34.5689 C   0  0  0  0  0  0  0  0  0  0  0  0
   15.2063   35.6141   32.6739 N   0  0  0  0  0  0  0  0  0  0  0  0
   14.6733   36.2275   34.9182 C   0  0  0  0  0  0  0  0  0  0  0  0
   13.8226   37.0457   35.5783 N   0  0  0  0  0  0  0  0  0  0  0  0
   16.1636   34.7595   33.1546 C   0  0  0  0  0  0  0  0  0  0  0  0
   15.6515   35.3492   35.4130 C   0  0  0  0  0  0  0  0  0  0  0  0
   16.3791   34.6310   34.5041 N   0  0  0  0  0  0  0  0  0  0  0  0
   15.9002   35.1934   36.8089 N   0  0  0  0  0  0  0  0  0  0  0  0
    9.7833   45.0065   32.1589 H   0  0  0  0  0  0  0  0  0  0  0  0
   11.8835   45.7114   32.9002 H   0  0  0  0  0  0  0  0  0  0  0  0
   10.8113   46.9715   33.0943 H   0  0  0  0  0  0  0  0  0  0  0  0
    7.8082   44.9939   33.6431 H   0  0  0  0  0  0  0  0  0  0  0  0
    8.4243   46.6583   33.4491 H   0  0  0  0  0  0  0  0  0  0  0  0
    8.6864   47.2433   37.7802 H   0  0  0  0  0  0  0  0  0  0  0  0
   10.0954   46.1462   37.7826 H   0  0  0  0  0  0  0  0  0  0  0  0
    8.9416   49.6273   37.7279 H   0  0  0  0  0  0  0  0  0  0  0  0
   13.8759   49.1631   37.8615 H   0  0  0  0  0  0  0  0  0  0  0  0
   10.3621   51.5842   38.1745 H   0  0  0  0  0  0  0  0  0  0  0  0
   12.8231   51.3482   38.2608 H   0  0  0  0  0  0  0  0  0  0  0  0
   11.3994   41.5435   31.4725 H   0  0  0  0  0  0  0  0  0  0  0  0
    9.8309   40.7374   31.7550 H   0  0  0  0  0  0  0  0  0  0  0  0
   11.7003   39.5045   30.3473 H   0  0  0  0  0  0  0  0  0  0  0  0
   10.1104   38.2619   32.6636 H   0  0  0  0  0  0  0  0  0  0  0  0
   13.6696   37.4586   31.2222 H   0  0  0  0  0  0  0  0  0  0  0  0
    8.9000   38.6882   30.8814 H   0  0  0  0  0  0  0  0  0  0  0  0
   11.2690   36.3069   32.5091 H   0  0  0  0  0  0  0  0  0  0  0  0
   12.1427   35.5151   30.6153 H   0  0  0  0  0  0  0  0  0  0  0  0
   12.3358   38.3593   34.7445 H   0  0  0  0  0  0  0  0  0  0  0  0
   16.7569   34.1789   32.4618 H   0  0  0  0  0  0  0  0  0  0  0  0
   16.6361   34.5315   37.1414 H   0  0  0  0  0  0  0  0  0  0  0  0
   15.3530   35.7357   37.5138 H   0  0  0  0  0  0  0  0  0  0  0  0
  1  2  2  0
  1  3  1  0
  3  4  1  0
  4  5  1  0
  6  1  1  0
  7  6  1  0
  6  8  1  0
  8  9  1  0
  9 10  1  0
  9 11  2  0
 10 12  1  0
 12 13  1  0
 13 14  2  0
 15 13  1  0
 14 16  1  0
 14 17  1  0
 18 15  2  0
 16 19  1  0
 16 20  2  0
 17 21  2  0
 21 18  1  0
  4 22  2  0
  4 23  1  0
 24 23  1  0
 24 25  1  0
 25 26  1  0
 25 27  1  0
 26 28  1  0
 27 29  1  0
 27 30  1  0
 30 28  1  0
 28 31  1  0
 30 32  1  0
 33 31  1  0
 34 31  1  0
 35 33  2  0
 33 36  1  0
 37 34  2  0
 38 35  1  0
 36 39  2  0
 36 37  1  0
 40 38  2  0
 40 39  1  0
 39 41  1  0
  6 42  1  6
  7 43  1  0
  7 44  1  0
  8 45  1  0
  8 46  1  0
 12 47  1  0
 12 48  1  0
 15 49  1  0
 17 50  1  0
 18 51  1  0
 21 52  1  0
 24 53  1  0
 24 54  1  0
 25 55  1  0
 27 56  1  0
 28 57  1  0
 29 58  1  0
 30 59  1  0
 32 60  1  0
 34 61  1  0
 38 62  1  0
 41 63  1  0
 41 64  1  0
M  CHG  3   5  -1  16   1  19  -1
M  END
>  <EmbedRMS>  (610) 
0.08931171707492903

$$$$

     RDKit          3D

 64 67  0  0  0  0  0  0  0  0999 V2000
   10.2878   43.7687   33.8085 C   0  0  0  0  0  0  0  0  0  0  0  0
   11.4117   43.5793   34.3596 O   0  0  0  0  0  0  0  0  0  0  0  0
    9.3668   42.7302   33.7017 O   0  0  0  0  0  0  0  0  0  0  0  0
    9.8844   41.2325   34.2841 P   0  0  0  0  0  5  0  0  0  0  0  0
   10.3646   41.4678   35.8747 O   0  0  0  0  0  1  0  0  0  0  0  0
    9.9638   45.1116   33.2471 C   0  0  2  0  0  0  0  0  0  0  0  0
   11.0620   46.0541   33.4764 N   0  0  0  0  0  0  0  0  0  0  0  0
    8.6427   45.6680   33.8119 C   0  0  0  0  0  0  0  0  0  0  0  0
    8.6692   45.8281   35.3031 C   0  0  0  0  0  0  0  0  0  0  0  0
    9.1025   47.0374   35.8576 O   0  0  0  0  0  0  0  0  0  0  0  0
    8.3304   44.8643   36.0432 O   0  0  0  0  0  0  0  0  0  0  0  0
    9.1533   47.2791   37.2623 C   0  0  0  0  0  0  0  0  0  0  0  0
    7.7604   47.3629   37.8443 C   0  0  0  0  0  0  0  0  0  0  0  0
    6.7753   48.2514   37.3311 C   0  0  0  0  0  0  0  0  0  0  0  0
    7.4213   46.4993   38.9022 C   0  0  0  0  0  0  0  0  0  0  0  0
    7.0569   49.1714   36.2602 N   0  0  0  0  0  4  0  0  0  0  0  0
    5.4778   48.2196   37.8727 C   0  0  0  0  0  0  0  0  0  0  0  0
    6.1317   46.4964   39.4347 C   0  0  0  0  0  0  0  0  0  0  0  0
    6.0519   49.5540   35.4017 O   0  0  0  0  0  1  0  0  0  0  0  0
    8.1572   49.7560   36.1920 O   0  0  0  0  0  0  0  0  0  0  0  0
    5.1608   47.3513   38.9180 C   0  0  0  0  0  0  0  0  0  0  0  0
    8.8068   40.1899   34.2076 O   0  0  0  0  0  0  0  0  0  0  0  0
   11.2374   40.7894   33.3688 O   0  0  0  0  0  0  0  0  0  0  0  0
   10.9185   40.6886   31.9949 C   0  0  0  0  0  0  0  0  0  0  0  0
   11.5179   39.3800   31.4398 C   0  0  0  0  0  0  0  0  0  0  0  0
   12.7483   39.0876   32.0750 O   0  0  0  0  0  0  0  0  0  0  0  0
   10.6053   38.1874   31.6656 C   0  0  0  0  0  0  0  0  0  0  0  0
   12.9360   37.6816   32.0288 C   0  0  0  0  0  0  0  0  0  0  0  0
    9.6423   38.0737   30.6445 O   0  0  0  0  0  0  0  0  0  0  0  0
   11.5765   37.0158   31.7046 C   0  0  0  0  0  0  0  0  0  0  0  0
   13.4908   37.2183   33.3237 N   0  0  0  0  0  0  0  0  0  0  0  0
   11.6103   36.3399   30.4680 O   0  0  0  0  0  0  0  0  0  0  0  0
   14.4762   36.3274   33.5728 C   0  0  0  0  0  0  0  0  0  0  0  0
   13.1181   37.6318   34.5689 C   0  0  0  0  0  0  0  0  0  0  0  0
   15.2063   35.6141   32.6739 N   0  0  0  0  0  0  0  0  0  0  0  0
   14.6733   36.2275   34.9182 C   0  0  0  0  0  0  0  0  0  0  0  0
   13.8226   37.0457   35.5783 N   0  0  0  0  0  0  0  0  0  0  0  0
   16.1635   34.7595   33.1546 C   0  0  0  0  0  0  0  0  0  0  0  0
   15.6515   35.3492   35.4130 C   0  0  0  0  0  0  0  0  0  0  0  0
   16.3791   34.6310   34.5041 N   0  0  0  0  0  0  0  0  0  0  0  0
   15.9002   35.1934   36.8089 N   0  0  0  0  0  0  0  0  0  0  0  0
    9.8327   44.9918   32.1491 H   0  0  0  0  0  0  0  0  0  0  0  0
   11.3024   46.0979   34.4940 H   0  0  0  0  0  0  0  0  0  0  0  0
   11.9098   45.7269   32.9574 H   0  0  0  0  0  0  0  0  0  0  0  0
    7.8031   44.9956   33.5296 H   0  0  0  0  0  0  0  0  0  0  0  0
    8.4366   46.6568   33.3480 H   0  0  0  0  0  0  0  0  0  0  0  0
    9.6891   48.2315   37.4519 H   0  0  0  0  0  0  0  0  0  0  0  0
    9.7545   46.4788   37.7475 H   0  0  0  0  0  0  0  0  0  0  0  0
    8.1539   45.8143   39.3109 H   0  0  0  0  0  0  0  0  0  0  0  0
    4.7103   48.8829   37.4948 H   0  0  0  0  0  0  0  0  0  0  0  0
    5.8831   45.8242   40.2458 H   0  0  0  0  0  0  0  0  0  0  0  0
    4.1600   47.3439   39.3301 H   0  0  0  0  0  0  0  0  0  0  0  0
   11.3991   41.5436   31.4731 H   0  0  0  0  0  0  0  0  0  0  0  0
    9.8306   40.7373   31.7550 H   0  0  0  0  0  0  0  0  0  0  0  0
   11.7001   39.5047   30.3474 H   0  0  0  0  0  0  0  0  0  0  0  0
   10.1103   38.2617   32.6636 H   0  0  0  0  0  0  0  0  0  0  0  0
   13.6696   37.4587   31.2222 H   0  0  0  0  0  0  0  0  0  0  0  0
    8.8999   38.6880   30.8814 H   0  0  0  0  0  0  0  0  0  0  0  0
   11.2690   36.3068   32.5091 H   0  0  0  0  0  0  0  0  0  0  0  0
   12.1427   35.5151   30.6153 H   0  0  0  0  0  0  0  0  0  0  0  0
   12.3359   38.3593   34.7445 H   0  0  0  0  0  0  0  0  0  0  0  0
   16.7569   34.1789   32.4618 H   0  0  0  0  0  0  0  0  0  0  0  0
   15.3530   35.7356   37.5138 H   0  0  0  0  0  0  0  0  0  0  0  0
   16.6361   34.5315   37.1413 H   0  0  0  0  0  0  0  0  0  0  0  0
  1  2  2  0
  1  3  1  0
  3  4  1  0
  4  5  1  0
  6  1  1  0
  7  6  1  0
  6  8  1  0
  8  9  1  0
  9 10  1  0
  9 11  2  0
 10 12  1  0
 12 13  1  0
 13 14  2  0
 15 13  1  0
 14 16  1  0
 14 17  1  0
 18 15  2  0
 16 19  1  0
 16 20  2  0
 17 21  2  0
 21 18  1  0
  4 22  2  0
  4 23  1  0
 24 23  1  0
 24 25  1  0
 25 26  1  0
 25 27  1  0
 26 28  1  0
 27 29  1  0
 27 30  1  0
 30 28  1  0
 28 31  1  0
 30 32  1  0
 33 31  1  0
 34 31  1  0
 35 33  2  0
 33 36  1  0
 37 34  2  0
 38 35  1  0
 36 39  2  0
 36 37  1  0
 40 38  2  0
 40 39  1  0
 39 41  1  0
  6 42  1  6
  7 43  1  0
  7 44  1  0
  8 45  1  0
  8 46  1  0
 12 47  1  0
 12 48  1  0
 15 49  1  0
 17 50  1  0
 18 51  1  0
 21 52  1  0
 24 53  1  0
 24 54  1  0
 25 55  1  0
 27 56  1  0
 28 57  1  0
 29 58  1  0
 30 59  1  0
 32 60  1  0
 34 61  1  0
 38 62  1  0
 41 63  1  0
 41 64  1  0
M  CHG  3   5  -1  16   1  19  -1
M  END
>  <EmbedRMS>  (611) 
0.08996790757710911

$$$$

     RDKit          3D

 64 67  0  0  0  0  0  0  0  0999 V2000
   10.2863   43.7716   33.8041 C   0  0  0  0  0  0  0  0  0  0  0  0
   11.4114   43.5869   34.3545 O   0  0  0  0  0  0  0  0  0  0  0  0
    9.3673   42.7308   33.6997 O   0  0  0  0  0  0  0  0  0  0  0  0
    9.8854   41.2341   34.2843 P   0  0  0  0  0  5  0  0  0  0  0  0
   10.3651   41.4707   35.8749 O   0  0  0  0  0  1  0  0  0  0  0  0
    9.9565   45.1116   33.2470 C   0  0  2  0  0  0  0  0  0  0  0  0
   11.0672   46.0363   33.4856 N   0  0  0  0  0  0  0  0  0  0  0  0
    8.6227   45.6576   33.8056 C   0  0  0  0  0  0  0  0  0  0  0  0
    8.6157   45.7663   35.3021 C   0  0  0  0  0  0  0  0  0  0  0  0
    8.3929   44.6194   36.0730 O   0  0  0  0  0  0  0  0  0  0  0  0
    8.8352   46.8801   35.8522 O   0  0  0  0  0  0  0  0  0  0  0  0
    8.3926   44.6241   37.5000 C   0  0  0  0  0  0  0  0  0  0  0  0
    7.1717   45.3269   38.0546 C   0  0  0  0  0  0  0  0  0  0  0  0
    7.2167   46.0485   39.2761 C   0  0  0  0  0  0  0  0  0  0  0  0
    5.9524   45.2438   37.3542 C   0  0  0  0  0  0  0  0  0  0  0  0
    8.3991   46.0739   40.0935 N   0  0  0  0  0  4  0  0  0  0  0  0
    6.0700   46.7380   39.7101 C   0  0  0  0  0  0  0  0  0  0  0  0
    4.8203   45.9194   37.8116 C   0  0  0  0  0  0  0  0  0  0  0  0
    9.1052   44.9161   40.3262 O   0  0  0  0  0  1  0  0  0  0  0  0
    8.6786   47.0929   40.7584 O   0  0  0  0  0  0  0  0  0  0  0  0
    4.8823   46.6752   38.9805 C   0  0  0  0  0  0  0  0  0  0  0  0
    8.8079   40.1913   34.2085 O   0  0  0  0  0  0  0  0  0  0  0  0
   11.2380   40.7899   33.3690 O   0  0  0  0  0  0  0  0  0  0  0  0
   10.9186   40.6887   31.9952 C   0  0  0  0  0  0  0  0  0  0  0  0
   11.5179   39.3801   31.4400 C   0  0  0  0  0  0  0  0  0  0  0  0
   12.7484   39.0876   32.0751 O   0  0  0  0  0  0  0  0  0  0  0  0
   10.6053   38.1875   31.6657 C   0  0  0  0  0  0  0  0  0  0  0  0
   12.9361   37.6816   32.0288 C   0  0  0  0  0  0  0  0  0  0  0  0
    9.6423   38.0738   30.6445 O   0  0  0  0  0  0  0  0  0  0  0  0
   11.5765   37.0158   31.7046 C   0  0  0  0  0  0  0  0  0  0  0  0
   13.4908   37.2183   33.3237 N   0  0  0  0  0  0  0  0  0  0  0  0
   11.6102   36.3399   30.4680 O   0  0  0  0  0  0  0  0  0  0  0  0
   14.4762   36.3273   33.5728 C   0  0  0  0  0  0  0  0  0  0  0  0
   13.1181   37.6318   34.5689 C   0  0  0  0  0  0  0  0  0  0  0  0
   15.2063   35.6141   32.6739 N   0  0  0  0  0  0  0  0  0  0  0  0
   14.6733   36.2275   34.9182 C   0  0  0  0  0  0  0  0  0  0  0  0
   13.8226   37.0457   35.5783 N   0  0  0  0  0  0  0  0  0  0  0  0
   16.1635   34.7595   33.1546 C   0  0  0  0  0  0  0  0  0  0  0  0
   15.6515   35.3492   35.4130 C   0  0  0  0  0  0  0  0  0  0  0  0
   16.3791   34.6310   34.5041 N   0  0  0  0  0  0  0  0  0  0  0  0
   15.9002   35.1933   36.8089 N   0  0  0  0  0  0  0  0  0  0  0  0
    9.8397   44.9890   32.1478 H   0  0  0  0  0  0  0  0  0  0  0  0
   11.1535   46.2385   34.5083 H   0  0  0  0  0  0  0  0  0  0  0  0
   10.8572   46.9419   33.0062 H   0  0  0  0  0  0  0  0  0  0  0  0
    8.4160   46.6547   33.3591 H   0  0  0  0  0  0  0  0  0  0  0  0
    7.7917   44.9877   33.4954 H   0  0  0  0  0  0  0  0  0  0  0  0
    9.3312   45.1062   37.8463 H   0  0  0  0  0  0  0  0  0  0  0  0
    8.3894   43.5735   37.8580 H   0  0  0  0  0  0  0  0  0  0  0  0
    5.8783   44.6659   36.4414 H   0  0  0  0  0  0  0  0  0  0  0  0
    6.0884   47.3035   40.6332 H   0  0  0  0  0  0  0  0  0  0  0  0
    3.8934   45.8592   37.2559 H   0  0  0  0  0  0  0  0  0  0  0  0
    4.0035   47.2007   39.3315 H   0  0  0  0  0  0  0  0  0  0  0  0
    9.8306   40.7372   31.7556 H   0  0  0  0  0  0  0  0  0  0  0  0
   11.3989   41.5436   31.4730 H   0  0  0  0  0  0  0  0  0  0  0  0
   11.7000   39.5048   30.3475 H   0  0  0  0  0  0  0  0  0  0  0  0
   10.1103   38.2618   32.6637 H   0  0  0  0  0  0  0  0  0  0  0  0
   13.6696   37.4587   31.2223 H   0  0  0  0  0  0  0  0  0  0  0  0
    8.9000   38.6882   30.8814 H   0  0  0  0  0  0  0  0  0  0  0  0
   11.2690   36.3069   32.5091 H   0  0  0  0  0  0  0  0  0  0  0  0
   12.1427   35.5151   30.6153 H   0  0  0  0  0  0  0  0  0  0  0  0
   12.3359   38.3593   34.7445 H   0  0  0  0  0  0  0  0  0  0  0  0
   16.7569   34.1789   32.4618 H   0  0  0  0  0  0  0  0  0  0  0  0
   16.6362   34.5315   37.1413 H   0  0  0  0  0  0  0  0  0  0  0  0
   15.3530   35.7356   37.5138 H   0  0  0  0  0  0  0  0  0  0  0  0
  1  2  2  0
  1  3  1  0
  3  4  1  0
  4  5  1  0
  6  1  1  0
  7  6  1  0
  6  8  1  0
  8  9  1  0
  9 10  1  0
  9 11  2  0
 10 12  1  0
 12 13  1  0
 13 14  2  0
 15 13  1  0
 14 16  1  0
 14 17  1  0
 18 15  2  0
 16 19  1  0
 16 20  2  0
 17 21  2  0
 21 18  1  0
  4 22  2  0
  4 23  1  0
 24 23  1  0
 24 25  1  0
 25 26  1  0
 25 27  1  0
 26 28  1  0
 27 29  1  0
 27 30  1  0
 30 28  1  0
 28 31  1  0
 30 32  1  0
 33 31  1  0
 34 31  1  0
 35 33  2  0
 33 36  1  0
 37 34  2  0
 38 35  1  0
 36 39  2  0
 36 37  1  0
 40 38  2  0
 40 39  1  0
 39 41  1  0
  6 42  1  6
  7 43  1  0
  7 44  1  0
  8 45  1  0
  8 46  1  0
 12 47  1  0
 12 48  1  0
 15 49  1  0
 17 50  1  0
 18 51  1  0
 21 52  1  0
 24 53  1  0
 24 54  1  0
 25 55  1  0
 27 56  1  0
 28 57  1  0
 29 58  1  0
 30 59  1  0
 32 60  1  0
 34 61  1  0
 38 62  1  0
 41 63  1  0
 41 64  1  0
M  CHG  3   5  -1  16   1  19  -1
M  END
>  <EmbedRMS>  (612) 
0.08920081554407824

$$$$

     RDKit          3D

 64 67  0  0  0  0  0  0  0  0999 V2000
   10.2792   43.7769   33.8125 C   0  0  0  0  0  0  0  0  0  0  0  0
   11.4056   43.5922   34.3610 O   0  0  0  0  0  0  0  0  0  0  0  0
    9.3688   42.7296   33.6977 O   0  0  0  0  0  0  0  0  0  0  0  0
    9.8869   41.2339   34.2833 P   0  0  0  0  0  5  0  0  0  0  0  0
   10.3663   41.4700   35.8740 O   0  0  0  0  0  1  0  0  0  0  0  0
    9.9473   45.1195   33.2560 C   0  0  2  0  0  0  0  0  0  0  0  0
   11.0797   46.0225   33.4713 N   0  0  0  0  0  0  0  0  0  0  0  0
    8.6662   45.7063   33.8915 C   0  0  0  0  0  0  0  0  0  0  0  0
    7.4301   44.9306   33.5063 C   0  0  0  0  0  0  0  0  0  0  0  0
    6.7177   44.1331   34.4128 O   0  0  0  0  0  0  0  0  0  0  0  0
    7.0305   44.9850   32.3134 O   0  0  0  0  0  0  0  0  0  0  0  0
    7.0062   44.0363   35.8048 C   0  0  0  0  0  0  0  0  0  0  0  0
    6.0373   43.0802   36.4502 C   0  0  0  0  0  0  0  0  0  0  0  0
    4.7388   43.4811   36.8677 C   0  0  0  0  0  0  0  0  0  0  0  0
    6.4388   41.7458   36.6408 C   0  0  0  0  0  0  0  0  0  0  0  0
    4.2489   44.8196   36.6660 N   0  0  0  0  0  4  0  0  0  0  0  0
    3.9079   42.5441   37.5081 C   0  0  0  0  0  0  0  0  0  0  0  0
    5.5915   40.8284   37.2625 C   0  0  0  0  0  0  0  0  0  0  0  0
    3.3306   45.3532   37.5409 O   0  0  0  0  0  1  0  0  0  0  0  0
    4.5075   45.4426   35.6161 O   0  0  0  0  0  0  0  0  0  0  0  0
    4.3311   41.2284   37.7012 C   0  0  0  0  0  0  0  0  0  0  0  0
    8.8094   40.1909   34.2069 O   0  0  0  0  0  0  0  0  0  0  0  0
   11.2381   40.7910   33.3668 O   0  0  0  0  0  0  0  0  0  0  0  0
   10.9142   40.6861   31.9944 C   0  0  0  0  0  0  0  0  0  0  0  0
   11.5171   39.3796   31.4408 C   0  0  0  0  0  0  0  0  0  0  0  0
   12.7489   39.0885   32.0760 O   0  0  0  0  0  0  0  0  0  0  0  0
   10.6051   38.1877   31.6660 C   0  0  0  0  0  0  0  0  0  0  0  0
   12.9412   37.6827   32.0278 C   0  0  0  0  0  0  0  0  0  0  0  0
    9.6358   38.0931   30.6504 O   0  0  0  0  0  0  0  0  0  0  0  0
   11.5826   37.0179   31.6937 C   0  0  0  0  0  0  0  0  0  0  0  0
   13.4908   37.2176   33.3239 N   0  0  0  0  0  0  0  0  0  0  0  0
   11.6139   36.3180   30.4675 O   0  0  0  0  0  0  0  0  0  0  0  0
   14.4762   36.3270   33.5733 C   0  0  0  0  0  0  0  0  0  0  0  0
   13.1179   37.6316   34.5689 C   0  0  0  0  0  0  0  0  0  0  0  0
   15.2067   35.6140   32.6744 N   0  0  0  0  0  0  0  0  0  0  0  0
   14.6731   36.2273   34.9186 C   0  0  0  0  0  0  0  0  0  0  0  0
   13.8223   37.0456   35.5785 N   0  0  0  0  0  0  0  0  0  0  0  0
   16.1639   34.7595   33.1551 C   0  0  0  0  0  0  0  0  0  0  0  0
   15.6515   35.3491   35.4134 C   0  0  0  0  0  0  0  0  0  0  0  0
   16.3792   34.6310   34.5046 N   0  0  0  0  0  0  0  0  0  0  0  0
   15.9002   35.1933   36.8093 N   0  0  0  0  0  0  0  0  0  0  0  0
    9.7943   45.0053   32.1597 H   0  0  0  0  0  0  0  0  0  0  0  0
   11.1415   46.2761   34.4853 H   0  0  0  0  0  0  0  0  0  0  0  0
   10.9075   46.9074   32.9406 H   0  0  0  0  0  0  0  0  0  0  0  0
    8.5318   46.7496   33.5321 H   0  0  0  0  0  0  0  0  0  0  0  0
    8.7869   45.7681   34.9921 H   0  0  0  0  0  0  0  0  0  0  0  0
    8.0495   43.6791   35.9466 H   0  0  0  0  0  0  0  0  0  0  0  0
    6.9313   45.0353   36.2848 H   0  0  0  0  0  0  0  0  0  0  0  0
    7.4178   41.4157   36.3190 H   0  0  0  0  0  0  0  0  0  0  0  0
    2.9178   42.8280   37.8417 H   0  0  0  0  0  0  0  0  0  0  0  0
    5.9156   39.8061   37.4090 H   0  0  0  0  0  0  0  0  0  0  0  0
    3.6769   40.5157   38.1867 H   0  0  0  0  0  0  0  0  0  0  0  0
    9.8240   40.7212   31.7580 H   0  0  0  0  0  0  0  0  0  0  0  0
   11.3861   41.5432   31.4682 H   0  0  0  0  0  0  0  0  0  0  0  0
   11.6995   39.5063   30.3486 H   0  0  0  0  0  0  0  0  0  0  0  0
   10.1122   38.2725   32.6633 H   0  0  0  0  0  0  0  0  0  0  0  0
   13.6816   37.4629   31.2269 H   0  0  0  0  0  0  0  0  0  0  0  0
    9.0033   37.3833   30.9353 H   0  0  0  0  0  0  0  0  0  0  0  0
   11.2845   36.3041   32.4929 H   0  0  0  0  0  0  0  0  0  0  0  0
   11.8848   36.9590   29.7589 H   0  0  0  0  0  0  0  0  0  0  0  0
   12.3362   38.3598   34.7441 H   0  0  0  0  0  0  0  0  0  0  0  0
   16.7574   34.1790   32.4623 H   0  0  0  0  0  0  0  0  0  0  0  0
   15.3529   35.7355   37.5141 H   0  0  0  0  0  0  0  0  0  0  0  0
   16.6363   34.5317   37.1418 H   0  0  0  0  0  0  0  0  0  0  0  0
  1  2  2  0
  1  3  1  0
  3  4  1  0
  4  5  1  0
  6  1  1  0
  7  6  1  0
  6  8  1  0
  8  9  1  0
  9 10  1  0
  9 11  2  0
 10 12  1  0
 12 13  1  0
 13 14  2  0
 15 13  1  0
 14 16  1  0
 14 17  1  0
 18 15  2  0
 16 19  1  0
 16 20  2  0
 17 21  2  0
 21 18  1  0
  4 22  2  0
  4 23  1  0
 24 23  1  0
 24 25  1  0
 25 26  1  0
 25 27  1  0
 26 28  1  0
 27 29  1  0
 27 30  1  0
 30 28  1  0
 28 31  1  0
 30 32  1  0
 33 31  1  0
 34 31  1  0
 35 33  2  0
 33 36  1  0
 37 34  2  0
 38 35  1  0
 36 39  2  0
 36 37  1  0
 40 38  2  0
 40 39  1  0
 39 41  1  0
  6 42  1  6
  7 43  1  0
  7 44  1  0
  8 45  1  0
  8 46  1  0
 12 47  1  0
 12 48  1  0
 15 49  1  0
 17 50  1  0
 18 51  1  0
 21 52  1  0
 24 53  1  0
 24 54  1  0
 25 55  1  0
 27 56  1  0
 28 57  1  0
 29 58  1  0
 30 59  1  0
 32 60  1  0
 34 61  1  0
 38 62  1  0
 41 63  1  0
 41 64  1  0
M  CHG  3   5  -1  16   1  19  -1
M  END
>  <EmbedRMS>  (613) 
0.08799531058229988

$$$$

     RDKit          3D

 64 67  0  0  0  0  0  0  0  0999 V2000
   10.2859   43.7685   33.8098 C   0  0  0  0  0  0  0  0  0  0  0  0
   11.4097   43.5787   34.3610 O   0  0  0  0  0  0  0  0  0  0  0  0
    9.3639   42.7311   33.7046 O   0  0  0  0  0  0  0  0  0  0  0  0
    9.8835   41.2332   34.2852 P   0  0  0  0  0  5  0  0  0  0  0  0
   10.3687   41.4679   35.8742 O   0  0  0  0  0  1  0  0  0  0  0  0
    9.9710   45.1077   33.2350 C   0  0  2  0  0  0  0  0  0  0  0  0
   11.0591   46.0568   33.4842 N   0  0  0  0  0  0  0  0  0  0  0  0
    8.6221   45.6711   33.7346 C   0  0  0  0  0  0  0  0  0  0  0  0
    8.4012   45.5742   35.2196 C   0  0  0  0  0  0  0  0  0  0  0  0
    7.1119   45.3070   35.6936 O   0  0  0  0  0  0  0  0  0  0  0  0
    9.3450   45.7926   36.0273 O   0  0  0  0  0  0  0  0  0  0  0  0
    6.8088   45.1425   37.0779 C   0  0  0  0  0  0  0  0  0  0  0  0
    7.2716   43.7887   37.5681 C   0  0  0  0  0  0  0  0  0  0  0  0
    7.9713   43.6179   38.7918 C   0  0  0  0  0  0  0  0  0  0  0  0
    6.9823   42.6574   36.7825 C   0  0  0  0  0  0  0  0  0  0  0  0
    8.2103   44.7134   39.6887 N   0  0  0  0  0  4  0  0  0  0  0  0
    8.4254   42.3375   39.1512 C   0  0  0  0  0  0  0  0  0  0  0  0
    7.4132   41.3890   37.1732 C   0  0  0  0  0  0  0  0  0  0  0  0
    9.3903   44.7738   40.3935 O   0  0  0  0  0  1  0  0  0  0  0  0
    7.2721   45.4673   40.0198 O   0  0  0  0  0  0  0  0  0  0  0  0
    8.1458   41.2312   38.3479 C   0  0  0  0  0  0  0  0  0  0  0  0
    8.8071   40.1895   34.2091 O   0  0  0  0  0  0  0  0  0  0  0  0
   11.2355   40.7911   33.3686 O   0  0  0  0  0  0  0  0  0  0  0  0
   10.9142   40.6898   31.9958 C   0  0  0  0  0  0  0  0  0  0  0  0
   11.5265   39.3899   31.4375 C   0  0  0  0  0  0  0  0  0  0  0  0
   12.7503   39.0919   32.0842 O   0  0  0  0  0  0  0  0  0  0  0  0
   10.6119   38.1915   31.6453 C   0  0  0  0  0  0  0  0  0  0  0  0
   12.9427   37.6855   32.0296 C   0  0  0  0  0  0  0  0  0  0  0  0
    9.6068   38.0857   30.6603 O   0  0  0  0  0  0  0  0  0  0  0  0
   11.5844   37.0187   31.6880 C   0  0  0  0  0  0  0  0  0  0  0  0
   13.4898   37.2165   33.3250 N   0  0  0  0  0  0  0  0  0  0  0  0
   11.6202   36.3063   30.4693 O   0  0  0  0  0  0  0  0  0  0  0  0
   14.4758   36.3264   33.5738 C   0  0  0  0  0  0  0  0  0  0  0  0
   13.1175   37.6308   34.5700 C   0  0  0  0  0  0  0  0  0  0  0  0
   15.2064   35.6140   32.6746 N   0  0  0  0  0  0  0  0  0  0  0  0
   14.6731   36.2268   34.9191 C   0  0  0  0  0  0  0  0  0  0  0  0
   13.8224   37.0450   35.5793 N   0  0  0  0  0  0  0  0  0  0  0  0
   16.1639   34.7596   33.1551 C   0  0  0  0  0  0  0  0  0  0  0  0
   15.6517   35.3489   35.4136 C   0  0  0  0  0  0  0  0  0  0  0  0
   16.3795   34.6310   34.5045 N   0  0  0  0  0  0  0  0  0  0  0  0
   15.9006   35.1931   36.8094 N   0  0  0  0  0  0  0  0  0  0  0  0
    9.8820   44.9787   32.1335 H   0  0  0  0  0  0  0  0  0  0  0  0
   11.9152   45.7393   32.9725 H   0  0  0  0  0  0  0  0  0  0  0  0
   11.2921   46.0992   34.5023 H   0  0  0  0  0  0  0  0  0  0  0  0
    8.5296   46.7355   33.4293 H   0  0  0  0  0  0  0  0  0  0  0  0
    7.8026   45.1168   33.2270 H   0  0  0  0  0  0  0  0  0  0  0  0
    7.2654   45.9816   37.6409 H   0  0  0  0  0  0  0  0  0  0  0  0
    5.7086   45.2063   37.2106 H   0  0  0  0  0  0  0  0  0  0  0  0
    6.4275   42.7588   35.8577 H   0  0  0  0  0  0  0  0  0  0  0  0
    8.9709   42.1909   40.0749 H   0  0  0  0  0  0  0  0  0  0  0  0
    7.1875   40.5279   36.5578 H   0  0  0  0  0  0  0  0  0  0  0  0
    8.4877   40.2477   38.6433 H   0  0  0  0  0  0  0  0  0  0  0  0
    9.8240   40.7186   31.7589 H   0  0  0  0  0  0  0  0  0  0  0  0
   11.3806   41.5528   31.4741 H   0  0  0  0  0  0  0  0  0  0  0  0
   11.7314   39.5338   30.3522 H   0  0  0  0  0  0  0  0  0  0  0  0
   10.1211   38.2680   32.6413 H   0  0  0  0  0  0  0  0  0  0  0  0
   13.6881   37.4713   31.2320 H   0  0  0  0  0  0  0  0  0  0  0  0
   10.0255   38.1749   29.7656 H   0  0  0  0  0  0  0  0  0  0  0  0
   11.2796   36.3124   32.4916 H   0  0  0  0  0  0  0  0  0  0  0  0
   11.9872   36.9100   29.7715 H   0  0  0  0  0  0  0  0  0  0  0  0
   12.3364   38.3596   34.7455 H   0  0  0  0  0  0  0  0  0  0  0  0
   16.7576   34.1795   32.4622 H   0  0  0  0  0  0  0  0  0  0  0  0
   16.6368   34.5316   37.1418 H   0  0  0  0  0  0  0  0  0  0  0  0
   15.3532   35.7351   37.5143 H   0  0  0  0  0  0  0  0  0  0  0  0
  1  2  2  0
  1  3  1  0
  3  4  1  0
  4  5  1  0
  6  1  1  0
  7  6  1  0
  6  8  1  0
  8  9  1  0
  9 10  1  0
  9 11  2  0
 10 12  1  0
 12 13  1  0
 13 14  2  0
 15 13  1  0
 14 16  1  0
 14 17  1  0
 18 15  2  0
 16 19  1  0
 16 20  2  0
 17 21  2  0
 21 18  1  0
  4 22  2  0
  4 23  1  0
 24 23  1  0
 24 25  1  0
 25 26  1  0
 25 27  1  0
 26 28  1  0
 27 29  1  0
 27 30  1  0
 30 28  1  0
 28 31  1  0
 30 32  1  0
 33 31  1  0
 34 31  1  0
 35 33  2  0
 33 36  1  0
 37 34  2  0
 38 35  1  0
 36 39  2  0
 36 37  1  0
 40 38  2  0
 40 39  1  0
 39 41  1  0
  6 42  1  6
  7 43  1  0
  7 44  1  0
  8 45  1  0
  8 46  1  0
 12 47  1  0
 12 48  1  0
 15 49  1  0
 17 50  1  0
 18 51  1  0
 21 52  1  0
 24 53  1  0
 24 54  1  0
 25 55  1  0
 27 56  1  0
 28 57  1  0
 29 58  1  0
 30 59  1  0
 32 60  1  0
 34 61  1  0
 38 62  1  0
 41 63  1  0
 41 64  1  0
M  CHG  3   5  -1  16   1  19  -1
M  END
>  <EmbedRMS>  (614) 
0.08730655930814478

$$$$

     RDKit          3D

 64 67  0  0  0  0  0  0  0  0999 V2000
   10.2785   43.7757   33.8106 C   0  0  0  0  0  0  0  0  0  0  0  0
   11.4017   43.5910   34.3661 O   0  0  0  0  0  0  0  0  0  0  0  0
    9.3647   42.7304   33.7007 O   0  0  0  0  0  0  0  0  0  0  0  0
    9.8866   41.2343   34.2838 P   0  0  0  0  0  5  0  0  0  0  0  0
   10.3656   41.4690   35.8748 O   0  0  0  0  0  1  0  0  0  0  0  0
    9.9495   45.1205   33.2537 C   0  0  2  0  0  0  0  0  0  0  0  0
   11.0830   46.0219   33.4687 N   0  0  0  0  0  0  0  0  0  0  0  0
    8.6936   45.7093   33.9334 C   0  0  0  0  0  0  0  0  0  0  0  0
    7.4245   44.9877   33.5837 C   0  0  0  0  0  0  0  0  0  0  0  0
    6.4327   44.8494   34.5605 O   0  0  0  0  0  0  0  0  0  0  0  0
    7.2224   44.5892   32.4035 O   0  0  0  0  0  0  0  0  0  0  0  0
    5.1604   44.2586   34.3045 C   0  0  0  0  0  0  0  0  0  0  0  0
    5.2780   42.7571   34.1870 C   0  0  0  0  0  0  0  0  0  0  0  0
    5.8121   41.9521   35.2310 C   0  0  0  0  0  0  0  0  0  0  0  0
    4.8606   42.1427   32.9918 C   0  0  0  0  0  0  0  0  0  0  0  0
    6.2816   42.5136   36.4708 N   0  0  0  0  0  4  0  0  0  0  0  0
    5.9085   40.5624   35.0402 C   0  0  0  0  0  0  0  0  0  0  0  0
    4.9674   40.7618   32.8247 C   0  0  0  0  0  0  0  0  0  0  0  0
    7.3005   41.8969   37.1600 O   0  0  0  0  0  1  0  0  0  0  0  0
    5.6791   43.4610   37.0148 O   0  0  0  0  0  0  0  0  0  0  0  0
    5.4891   39.9732   33.8471 C   0  0  0  0  0  0  0  0  0  0  0  0
    8.8152   40.1866   34.2053 O   0  0  0  0  0  0  0  0  0  0  0  0
   11.2389   40.7943   33.3676 O   0  0  0  0  0  0  0  0  0  0  0  0
   10.9154   40.6904   31.9953 C   0  0  0  0  0  0  0  0  0  0  0  0
   11.5268   39.3899   31.4376 C   0  0  0  0  0  0  0  0  0  0  0  0
   12.7505   39.0918   32.0842 O   0  0  0  0  0  0  0  0  0  0  0  0
   10.6119   38.1918   31.6455 C   0  0  0  0  0  0  0  0  0  0  0  0
   12.9427   37.6854   32.0296 C   0  0  0  0  0  0  0  0  0  0  0  0
    9.6066   38.0861   30.6606 O   0  0  0  0  0  0  0  0  0  0  0  0
   11.5842   37.0188   31.6881 C   0  0  0  0  0  0  0  0  0  0  0  0
   13.4898   37.2164   33.3250 N   0  0  0  0  0  0  0  0  0  0  0  0
   11.6199   36.3065   30.4694 O   0  0  0  0  0  0  0  0  0  0  0  0
   14.4758   36.3264   33.5739 C   0  0  0  0  0  0  0  0  0  0  0  0
   13.1175   37.6307   34.5700 C   0  0  0  0  0  0  0  0  0  0  0  0
   15.2064   35.6139   32.6746 N   0  0  0  0  0  0  0  0  0  0  0  0
   14.6731   36.2268   34.9191 C   0  0  0  0  0  0  0  0  0  0  0  0
   13.8224   37.0450   35.5793 N   0  0  0  0  0  0  0  0  0  0  0  0
   16.1640   34.7596   33.1551 C   0  0  0  0  0  0  0  0  0  0  0  0
   15.6517   35.3489   35.4136 C   0  0  0  0  0  0  0  0  0  0  0  0
   16.3795   34.6310   34.5045 N   0  0  0  0  0  0  0  0  0  0  0  0
   15.9006   35.1931   36.8094 N   0  0  0  0  0  0  0  0  0  0  0  0
    9.7721   45.0202   32.1590 H   0  0  0  0  0  0  0  0  0  0  0  0
   11.8928   45.6762   32.9024 H   0  0  0  0  0  0  0  0  0  0  0  0
   10.8466   46.9575   33.0646 H   0  0  0  0  0  0  0  0  0  0  0  0
    8.8297   45.7022   35.0374 H   0  0  0  0  0  0  0  0  0  0  0  0
    8.5652   46.7680   33.6217 H   0  0  0  0  0  0  0  0  0  0  0  0
    4.4658   44.5094   35.1317 H   0  0  0  0  0  0  0  0  0  0  0  0
    4.7215   44.7117   33.3882 H   0  0  0  0  0  0  0  0  0  0  0  0
    4.4550   42.7344   32.1803 H   0  0  0  0  0  0  0  0  0  0  0  0
    6.3083   39.9294   35.8222 H   0  0  0  0  0  0  0  0  0  0  0  0
    4.6451   40.3025   31.8991 H   0  0  0  0  0  0  0  0  0  0  0  0
    5.5713   38.9020   33.7150 H   0  0  0  0  0  0  0  0  0  0  0  0
   11.3810   41.5527   31.4716 H   0  0  0  0  0  0  0  0  0  0  0  0
    9.8249   40.7192   31.7592 H   0  0  0  0  0  0  0  0  0  0  0  0
   11.7318   39.5334   30.3521 H   0  0  0  0  0  0  0  0  0  0  0  0
   10.1212   38.2686   32.6416 H   0  0  0  0  0  0  0  0  0  0  0  0
   13.6879   37.4710   31.2319 H   0  0  0  0  0  0  0  0  0  0  0  0
   10.0251   38.1756   29.7659 H   0  0  0  0  0  0  0  0  0  0  0  0
   11.2793   36.3125   32.4917 H   0  0  0  0  0  0  0  0  0  0  0  0
   11.9866   36.9102   29.7716 H   0  0  0  0  0  0  0  0  0  0  0  0
   12.3364   38.3595   34.7454 H   0  0  0  0  0  0  0  0  0  0  0  0
   16.7576   34.1795   32.4622 H   0  0  0  0  0  0  0  0  0  0  0  0
   16.6368   34.5316   37.1418 H   0  0  0  0  0  0  0  0  0  0  0  0
   15.3532   35.7351   37.5143 H   0  0  0  0  0  0  0  0  0  0  0  0
  1  2  2  0
  1  3  1  0
  3  4  1  0
  4  5  1  0
  6  1  1  0
  7  6  1  0
  6  8  1  0
  8  9  1  0
  9 10  1  0
  9 11  2  0
 10 12  1  0
 12 13  1  0
 13 14  2  0
 15 13  1  0
 14 16  1  0
 14 17  1  0
 18 15  2  0
 16 19  1  0
 16 20  2  0
 17 21  2  0
 21 18  1  0
  4 22  2  0
  4 23  1  0
 24 23  1  0
 24 25  1  0
 25 26  1  0
 25 27  1  0
 26 28  1  0
 27 29  1  0
 27 30  1  0
 30 28  1  0
 28 31  1  0
 30 32  1  0
 33 31  1  0
 34 31  1  0
 35 33  2  0
 33 36  1  0
 37 34  2  0
 38 35  1  0
 36 39  2  0
 36 37  1  0
 40 38  2  0
 40 39  1  0
 39 41  1  0
  6 42  1  6
  7 43  1  0
  7 44  1  0
  8 45  1  0
  8 46  1  0
 12 47  1  0
 12 48  1  0
 15 49  1  0
 17 50  1  0
 18 51  1  0
 21 52  1  0
 24 53  1  0
 24 54  1  0
 25 55  1  0
 27 56  1  0
 28 57  1  0
 29 58  1  0
 30 59  1  0
 32 60  1  0
 34 61  1  0
 38 62  1  0
 41 63  1  0
 41 64  1  0
M  CHG  3   5  -1  16   1  19  -1
M  END
>  <EmbedRMS>  (615) 
0.08670354056112048

$$$$

     RDKit          3D

 64 67  0  0  0  0  0  0  0  0999 V2000
   10.2845   43.7729   33.8077 C   0  0  0  0  0  0  0  0  0  0  0  0
   11.4106   43.5874   34.3559 O   0  0  0  0  0  0  0  0  0  0  0  0
    9.3658   42.7320   33.7032 O   0  0  0  0  0  0  0  0  0  0  0  0
    9.8853   41.2342   34.2836 P   0  0  0  0  0  5  0  0  0  0  0  0
   10.3682   41.4663   35.8728 O   0  0  0  0  0  1  0  0  0  0  0  0
    9.9600   45.1098   33.2399 C   0  0  2  0  0  0  0  0  0  0  0  0
   11.0665   46.0371   33.4867 N   0  0  0  0  0  0  0  0  0  0  0  0
    8.6159   45.6591   33.7701 C   0  0  0  0  0  0  0  0  0  0  0  0
    8.5789   45.7808   35.2649 C   0  0  0  0  0  0  0  0  0  0  0  0
    8.2683   44.6544   36.0364 O   0  0  0  0  0  0  0  0  0  0  0  0
    8.8434   46.8870   35.8101 O   0  0  0  0  0  0  0  0  0  0  0  0
    8.3090   44.6248   37.4633 C   0  0  0  0  0  0  0  0  0  0  0  0
    9.6019   43.9987   37.9391 C   0  0  0  0  0  0  0  0  0  0  0  0
    9.6323   42.8521   38.7778 C   0  0  0  0  0  0  0  0  0  0  0  0
   10.8191   44.5544   37.5034 C   0  0  0  0  0  0  0  0  0  0  0  0
    8.4369   42.2884   39.3369 N   0  0  0  0  0  4  0  0  0  0  0  0
   10.8669   42.2574   39.0882 C   0  0  0  0  0  0  0  0  0  0  0  0
   12.0366   43.9598   37.8369 C   0  0  0  0  0  0  0  0  0  0  0  0
    8.3065   40.9220   39.4294 O   0  0  0  0  0  1  0  0  0  0  0  0
    7.6433   43.0136   39.9711 O   0  0  0  0  0  0  0  0  0  0  0  0
   12.0601   42.8067   38.6182 C   0  0  0  0  0  0  0  0  0  0  0  0
    8.8076   40.1915   34.2085 O   0  0  0  0  0  0  0  0  0  0  0  0
   11.2365   40.7914   33.3656 O   0  0  0  0  0  0  0  0  0  0  0  0
   10.9129   40.6845   31.9931 C   0  0  0  0  0  0  0  0  0  0  0  0
   11.5172   39.3774   31.4396 C   0  0  0  0  0  0  0  0  0  0  0  0
   12.7474   39.0871   32.0759 O   0  0  0  0  0  0  0  0  0  0  0  0
   10.6068   38.1852   31.6658 C   0  0  0  0  0  0  0  0  0  0  0  0
   12.9371   37.6813   32.0291 C   0  0  0  0  0  0  0  0  0  0  0  0
    9.6403   38.0882   30.6476 O   0  0  0  0  0  0  0  0  0  0  0  0
   11.5789   37.0135   31.7046 C   0  0  0  0  0  0  0  0  0  0  0  0
   13.4915   37.2184   33.3240 N   0  0  0  0  0  0  0  0  0  0  0  0
   11.6125   36.3389   30.4675 O   0  0  0  0  0  0  0  0  0  0  0  0
   14.4765   36.3273   33.5731 C   0  0  0  0  0  0  0  0  0  0  0  0
   13.1184   37.6319   34.5691 C   0  0  0  0  0  0  0  0  0  0  0  0
   15.2066   35.6140   32.6741 N   0  0  0  0  0  0  0  0  0  0  0  0
   14.6735   36.2274   34.9185 C   0  0  0  0  0  0  0  0  0  0  0  0
   13.8227   37.0456   35.5786 N   0  0  0  0  0  0  0  0  0  0  0  0
   16.1637   34.7594   33.1548 C   0  0  0  0  0  0  0  0  0  0  0  0
   15.6516   35.3491   35.4132 C   0  0  0  0  0  0  0  0  0  0  0  0
   16.3792   34.6309   34.5043 N   0  0  0  0  0  0  0  0  0  0  0  0
   15.9003   35.1933   36.8091 N   0  0  0  0  0  0  0  0  0  0  0  0
    9.8605   44.9793   32.1399 H   0  0  0  0  0  0  0  0  0  0  0  0
   11.1409   46.2450   34.5087 H   0  0  0  0  0  0  0  0  0  0  0  0
   10.8615   46.9399   32.9998 H   0  0  0  0  0  0  0  0  0  0  0  0
    8.4172   46.6526   33.3122 H   0  0  0  0  0  0  0  0  0  0  0  0
    7.7916   44.9865   33.4480 H   0  0  0  0  0  0  0  0  0  0  0  0
    8.2018   45.6434   37.8946 H   0  0  0  0  0  0  0  0  0  0  0  0
    7.4284   44.0424   37.7919 H   0  0  0  0  0  0  0  0  0  0  0  0
   10.8301   45.4438   36.8895 H   0  0  0  0  0  0  0  0  0  0  0  0
   10.9056   41.3769   39.7171 H   0  0  0  0  0  0  0  0  0  0  0  0
   12.9638   44.3909   37.4820 H   0  0  0  0  0  0  0  0  0  0  0  0
   13.0054   42.3443   38.8714 H   0  0  0  0  0  0  0  0  0  0  0  0
   11.3838   41.5416   31.4660 H   0  0  0  0  0  0  0  0  0  0  0  0
    9.8226   40.7186   31.7574 H   0  0  0  0  0  0  0  0  0  0  0  0
   11.7004   39.5018   30.3473 H   0  0  0  0  0  0  0  0  0  0  0  0
   10.1096   38.2752   32.6606 H   0  0  0  0  0  0  0  0  0  0  0  0
   13.6713   37.4596   31.2228 H   0  0  0  0  0  0  0  0  0  0  0  0
    9.0032   37.3835   30.9351 H   0  0  0  0  0  0  0  0  0  0  0  0
   11.2706   36.3050   32.5089 H   0  0  0  0  0  0  0  0  0  0  0  0
   12.1445   35.5138   30.6143 H   0  0  0  0  0  0  0  0  0  0  0  0
   12.3363   38.3596   34.7447 H   0  0  0  0  0  0  0  0  0  0  0  0
   16.7570   34.1788   32.4620 H   0  0  0  0  0  0  0  0  0  0  0  0
   15.3532   35.7356   37.5140 H   0  0  0  0  0  0  0  0  0  0  0  0
   16.6363   34.5314   37.1415 H   0  0  0  0  0  0  0  0  0  0  0  0
  1  2  2  0
  1  3  1  0
  3  4  1  0
  4  5  1  0
  6  1  1  0
  7  6  1  0
  6  8  1  0
  8  9  1  0
  9 10  1  0
  9 11  2  0
 10 12  1  0
 12 13  1  0
 13 14  2  0
 15 13  1  0
 14 16  1  0
 14 17  1  0
 18 15  2  0
 16 19  1  0
 16 20  2  0
 17 21  2  0
 21 18  1  0
  4 22  2  0
  4 23  1  0
 24 23  1  0
 24 25  1  0
 25 26  1  0
 25 27  1  0
 26 28  1  0
 27 29  1  0
 27 30  1  0
 30 28  1  0
 28 31  1  0
 30 32  1  0
 33 31  1  0
 34 31  1  0
 35 33  2  0
 33 36  1  0
 37 34  2  0
 38 35  1  0
 36 39  2  0
 36 37  1  0
 40 38  2  0
 40 39  1  0
 39 41  1  0
  6 42  1  6
  7 43  1  0
  7 44  1  0
  8 45  1  0
  8 46  1  0
 12 47  1  0
 12 48  1  0
 15 49  1  0
 17 50  1  0
 18 51  1  0
 21 52  1  0
 24 53  1  0
 24 54  1  0
 25 55  1  0
 27 56  1  0
 28 57  1  0
 29 58  1  0
 30 59  1  0
 32 60  1  0
 34 61  1  0
 38 62  1  0
 41 63  1  0
 41 64  1  0
M  CHG  3   5  -1  16   1  19  -1
M  END
>  <EmbedRMS>  (616) 
0.08871193042874205

$$$$

     RDKit          3D

 64 67  0  0  0  0  0  0  0  0999 V2000
   10.2869   43.7697   33.8114 C   0  0  0  0  0  0  0  0  0  0  0  0
   11.4131   43.5779   34.3556 O   0  0  0  0  0  0  0  0  0  0  0  0
    9.3659   42.7312   33.7049 O   0  0  0  0  0  0  0  0  0  0  0  0
    9.8838   41.2327   34.2849 P   0  0  0  0  0  5  0  0  0  0  0  0
   10.3646   41.4655   35.8752 O   0  0  0  0  0  1  0  0  0  0  0  0
    9.9682   45.1087   33.2400 C   0  0  2  0  0  0  0  0  0  0  0  0
   11.0590   46.0572   33.4804 N   0  0  0  0  0  0  0  0  0  0  0  0
    8.6300   45.6636   33.7670 C   0  0  0  0  0  0  0  0  0  0  0  0
    8.6593   46.0306   35.2238 C   0  0  0  0  0  0  0  0  0  0  0  0
    9.0276   45.0770   36.1813 O   0  0  0  0  0  0  0  0  0  0  0  0
    8.3157   47.1920   35.5763 O   0  0  0  0  0  0  0  0  0  0  0  0
    8.9914   45.3279   37.5857 C   0  0  0  0  0  0  0  0  0  0  0  0
   10.0378   46.3462   37.9831 C   0  0  0  0  0  0  0  0  0  0  0  0
   11.4275   46.1450   37.7521 C   0  0  0  0  0  0  0  0  0  0  0  0
    9.6062   47.5607   38.5492 C   0  0  0  0  0  0  0  0  0  0  0  0
   11.9457   44.9236   37.1933 N   0  0  0  0  0  4  0  0  0  0  0  0
   12.3287   47.1780   38.0684 C   0  0  0  0  0  0  0  0  0  0  0  0
   10.5205   48.5643   38.8692 C   0  0  0  0  0  0  0  0  0  0  0  0
   13.1264   44.9398   36.4865 O   0  0  0  0  0  1  0  0  0  0  0  0
   11.4451   43.8210   37.4925 O   0  0  0  0  0  0  0  0  0  0  0  0
   11.8783   48.3753   38.6250 C   0  0  0  0  0  0  0  0  0  0  0  0
    8.8062   40.1902   34.2079 O   0  0  0  0  0  0  0  0  0  0  0  0
   11.2360   40.7900   33.3684 O   0  0  0  0  0  0  0  0  0  0  0  0
   10.9147   40.6883   31.9953 C   0  0  0  0  0  0  0  0  0  0  0  0
   11.5258   39.3873   31.4367 C   0  0  0  0  0  0  0  0  0  0  0  0
   12.7489   39.0895   32.0821 O   0  0  0  0  0  0  0  0  0  0  0  0
   10.6122   38.1893   31.6462 C   0  0  0  0  0  0  0  0  0  0  0  0
   12.9373   37.6829   32.0302 C   0  0  0  0  0  0  0  0  0  0  0  0
    9.6150   38.0839   30.6538 O   0  0  0  0  0  0  0  0  0  0  0  0
   11.5793   37.0137   31.7014 C   0  0  0  0  0  0  0  0  0  0  0  0
   13.4906   37.2171   33.3243 N   0  0  0  0  0  0  0  0  0  0  0  0
   11.6217   36.3253   30.4725 O   0  0  0  0  0  0  0  0  0  0  0  0
   14.4763   36.3267   33.5731 C   0  0  0  0  0  0  0  0  0  0  0  0
   13.1182   37.6309   34.5695 C   0  0  0  0  0  0  0  0  0  0  0  0
   15.2065   35.6137   32.6740 N   0  0  0  0  0  0  0  0  0  0  0  0
   14.6735   36.2270   34.9185 C   0  0  0  0  0  0  0  0  0  0  0  0
   13.8229   37.0451   35.5788 N   0  0  0  0  0  0  0  0  0  0  0  0
   16.1639   34.7593   33.1547 C   0  0  0  0  0  0  0  0  0  0  0  0
   15.6518   35.3489   35.4132 C   0  0  0  0  0  0  0  0  0  0  0  0
   16.3794   34.6308   34.5042 N   0  0  0  0  0  0  0  0  0  0  0  0
   15.9006   35.1931   36.8090 N   0  0  0  0  0  0  0  0  0  0  0  0
    9.8605   44.9765   32.1408 H   0  0  0  0  0  0  0  0  0  0  0  0
   11.2786   46.1124   34.5020 H   0  0  0  0  0  0  0  0  0  0  0  0
   11.9183   45.7279   32.9820 H   0  0  0  0  0  0  0  0  0  0  0  0
    8.3656   46.5638   33.1695 H   0  0  0  0  0  0  0  0  0  0  0  0
    7.8206   44.9201   33.6030 H   0  0  0  0  0  0  0  0  0  0  0  0
    9.1597   44.3803   38.1356 H   0  0  0  0  0  0  0  0  0  0  0  0
    7.9687   45.6633   37.8661 H   0  0  0  0  0  0  0  0  0  0  0  0
    8.5540   47.7404   38.7321 H   0  0  0  0  0  0  0  0  0  0  0  0
   13.3902   47.0505   37.8991 H   0  0  0  0  0  0  0  0  0  0  0  0
   10.1736   49.4944   39.3006 H   0  0  0  0  0  0  0  0  0  0  0  0
   12.5852   49.1574   38.8701 H   0  0  0  0  0  0  0  0  0  0  0  0
   11.3819   41.5506   31.4733 H   0  0  0  0  0  0  0  0  0  0  0  0
    9.8246   40.7181   31.7583 H   0  0  0  0  0  0  0  0  0  0  0  0
   11.7288   39.5290   30.3507 H   0  0  0  0  0  0  0  0  0  0  0  0
   10.1137   38.2717   32.6380 H   0  0  0  0  0  0  0  0  0  0  0  0
   13.6725   37.4640   31.2241 H   0  0  0  0  0  0  0  0  0  0  0  0
   10.0536   38.1086   29.7639 H   0  0  0  0  0  0  0  0  0  0  0  0
   11.2646   36.3135   32.5107 H   0  0  0  0  0  0  0  0  0  0  0  0
   12.1551   35.5034   30.6316 H   0  0  0  0  0  0  0  0  0  0  0  0
   12.3363   38.3587   34.7451 H   0  0  0  0  0  0  0  0  0  0  0  0
   16.7573   34.1789   32.4619 H   0  0  0  0  0  0  0  0  0  0  0  0
   15.3533   35.7353   37.5139 H   0  0  0  0  0  0  0  0  0  0  0  0
   16.6366   34.5314   37.1415 H   0  0  0  0  0  0  0  0  0  0  0  0
  1  2  2  0
  1  3  1  0
  3  4  1  0
  4  5  1  0
  6  1  1  0
  7  6  1  0
  6  8  1  0
  8  9  1  0
  9 10  1  0
  9 11  2  0
 10 12  1  0
 12 13  1  0
 13 14  2  0
 15 13  1  0
 14 16  1  0
 14 17  1  0
 18 15  2  0
 16 19  1  0
 16 20  2  0
 17 21  2  0
 21 18  1  0
  4 22  2  0
  4 23  1  0
 24 23  1  0
 24 25  1  0
 25 26  1  0
 25 27  1  0
 26 28  1  0
 27 29  1  0
 27 30  1  0
 30 28  1  0
 28 31  1  0
 30 32  1  0
 33 31  1  0
 34 31  1  0
 35 33  2  0
 33 36  1  0
 37 34  2  0
 38 35  1  0
 36 39  2  0
 36 37  1  0
 40 38  2  0
 40 39  1  0
 39 41  1  0
  6 42  1  6
  7 43  1  0
  7 44  1  0
  8 45  1  0
  8 46  1  0
 12 47  1  0
 12 48  1  0
 15 49  1  0
 17 50  1  0
 18 51  1  0
 21 52  1  0
 24 53  1  0
 24 54  1  0
 25 55  1  0
 27 56  1  0
 28 57  1  0
 29 58  1  0
 30 59  1  0
 32 60  1  0
 34 61  1  0
 38 62  1  0
 41 63  1  0
 41 64  1  0
M  CHG  3   5  -1  16   1  19  -1
M  END
>  <EmbedRMS>  (617) 
0.08871853558987276

$$$$

     RDKit          3D

 64 67  0  0  0  0  0  0  0  0999 V2000
   10.2881   43.7707   33.8005 C   0  0  0  0  0  0  0  0  0  0  0  0
   11.4102   43.5874   34.3577 O   0  0  0  0  0  0  0  0  0  0  0  0
    9.3682   42.7305   33.6977 O   0  0  0  0  0  0  0  0  0  0  0  0
    9.8850   41.2344   34.2844 P   0  0  0  0  0  5  0  0  0  0  0  0
   10.3653   41.4715   35.8748 O   0  0  0  0  0  1  0  0  0  0  0  0
    9.9519   45.1155   33.2558 C   0  0  2  0  0  0  0  0  0  0  0  0
   11.0694   46.0344   33.4798 N   0  0  0  0  0  0  0  0  0  0  0  0
    8.6607   45.6626   33.8984 C   0  0  0  0  0  0  0  0  0  0  0  0
    8.7965   45.8553   35.3803 C   0  0  0  0  0  0  0  0  0  0  0  0
    8.7641   44.7375   36.2213 O   0  0  0  0  0  0  0  0  0  0  0  0
    8.9726   47.0125   35.8493 O   0  0  0  0  0  0  0  0  0  0  0  0
    8.8178   44.8142   37.6434 C   0  0  0  0  0  0  0  0  0  0  0  0
    7.4784   45.2317   38.1990 C   0  0  0  0  0  0  0  0  0  0  0  0
    6.4076   44.3122   38.3631 C   0  0  0  0  0  0  0  0  0  0  0  0
    7.2959   46.5744   38.5769 C   0  0  0  0  0  0  0  0  0  0  0  0
    6.5263   42.9289   37.9813 N   0  0  0  0  0  4  0  0  0  0  0  0
    5.2015   44.7625   38.9316 C   0  0  0  0  0  0  0  0  0  0  0  0
    6.0861   47.0025   39.1242 C   0  0  0  0  0  0  0  0  0  0  0  0
    7.1725   42.5717   36.8209 O   0  0  0  0  0  1  0  0  0  0  0  0
    5.9014   42.0511   38.6120 O   0  0  0  0  0  0  0  0  0  0  0  0
    5.0424   46.0976   39.3051 C   0  0  0  0  0  0  0  0  0  0  0  0
    8.8071   40.1920   34.2095 O   0  0  0  0  0  0  0  0  0  0  0  0
   11.2365   40.7899   33.3681 O   0  0  0  0  0  0  0  0  0  0  0  0
   10.9136   40.6859   31.9953 C   0  0  0  0  0  0  0  0  0  0  0  0
   11.5169   39.3798   31.4411 C   0  0  0  0  0  0  0  0  0  0  0  0
   12.7488   39.0886   32.0762 O   0  0  0  0  0  0  0  0  0  0  0  0
   10.6051   38.1876   31.6660 C   0  0  0  0  0  0  0  0  0  0  0  0
   12.9412   37.6828   32.0278 C   0  0  0  0  0  0  0  0  0  0  0  0
    9.6359   38.0931   30.6503 O   0  0  0  0  0  0  0  0  0  0  0  0
   11.5827   37.0179   31.6936 C   0  0  0  0  0  0  0  0  0  0  0  0
   13.4909   37.2176   33.3239 N   0  0  0  0  0  0  0  0  0  0  0  0
   11.6140   36.3180   30.4675 O   0  0  0  0  0  0  0  0  0  0  0  0
   14.4762   36.3270   33.5733 C   0  0  0  0  0  0  0  0  0  0  0  0
   13.1179   37.6316   34.5689 C   0  0  0  0  0  0  0  0  0  0  0  0
   15.2067   35.6140   32.6744 N   0  0  0  0  0  0  0  0  0  0  0  0
   14.6731   36.2272   34.9186 C   0  0  0  0  0  0  0  0  0  0  0  0
   13.8223   37.0456   35.5785 N   0  0  0  0  0  0  0  0  0  0  0  0
   16.1639   34.7595   33.1551 C   0  0  0  0  0  0  0  0  0  0  0  0
   15.6515   35.3491   35.4134 C   0  0  0  0  0  0  0  0  0  0  0  0
   16.3792   34.6310   34.5045 N   0  0  0  0  0  0  0  0  0  0  0  0
   15.9002   35.1933   36.8093 N   0  0  0  0  0  0  0  0  0  0  0  0
    9.7787   45.0103   32.1611 H   0  0  0  0  0  0  0  0  0  0  0  0
   11.8794   45.7174   32.8975 H   0  0  0  0  0  0  0  0  0  0  0  0
   10.8054   46.9741   33.1032 H   0  0  0  0  0  0  0  0  0  0  0  0
    8.3927   46.6302   33.4203 H   0  0  0  0  0  0  0  0  0  0  0  0
    7.8188   44.9636   33.7031 H   0  0  0  0  0  0  0  0  0  0  0  0
    9.0960   43.8190   38.0489 H   0  0  0  0  0  0  0  0  0  0  0  0
    9.6251   45.5122   37.9570 H   0  0  0  0  0  0  0  0  0  0  0  0
    8.0974   47.2929   38.4582 H   0  0  0  0  0  0  0  0  0  0  0  0
    4.3734   44.0790   39.0711 H   0  0  0  0  0  0  0  0  0  0  0  0
    5.9599   48.0377   39.4140 H   0  0  0  0  0  0  0  0  0  0  0  0
    4.1061   46.4314   39.7334 H   0  0  0  0  0  0  0  0  0  0  0  0
    9.8236   40.7211   31.7585 H   0  0  0  0  0  0  0  0  0  0  0  0
   11.3859   41.5434   31.4700 H   0  0  0  0  0  0  0  0  0  0  0  0
   11.6992   39.5069   30.3489 H   0  0  0  0  0  0  0  0  0  0  0  0
   10.1120   38.2722   32.6632 H   0  0  0  0  0  0  0  0  0  0  0  0
   13.6816   37.4632   31.2269 H   0  0  0  0  0  0  0  0  0  0  0  0
    9.0037   37.3829   30.9349 H   0  0  0  0  0  0  0  0  0  0  0  0
   11.2846   36.3040   32.4928 H   0  0  0  0  0  0  0  0  0  0  0  0
   11.8849   36.9591   29.7588 H   0  0  0  0  0  0  0  0  0  0  0  0
   12.3363   38.3599   34.7441 H   0  0  0  0  0  0  0  0  0  0  0  0
   16.7574   34.1790   32.4623 H   0  0  0  0  0  0  0  0  0  0  0  0
   16.6363   34.5316   37.1418 H   0  0  0  0  0  0  0  0  0  0  0  0
   15.3529   35.7355   37.5141 H   0  0  0  0  0  0  0  0  0  0  0  0
  1  2  2  0
  1  3  1  0
  3  4  1  0
  4  5  1  0
  6  1  1  0
  7  6  1  0
  6  8  1  0
  8  9  1  0
  9 10  1  0
  9 11  2  0
 10 12  1  0
 12 13  1  0
 13 14  2  0
 15 13  1  0
 14 16  1  0
 14 17  1  0
 18 15  2  0
 16 19  1  0
 16 20  2  0
 17 21  2  0
 21 18  1  0
  4 22  2  0
  4 23  1  0
 24 23  1  0
 24 25  1  0
 25 26  1  0
 25 27  1  0
 26 28  1  0
 27 29  1  0
 27 30  1  0
 30 28  1  0
 28 31  1  0
 30 32  1  0
 33 31  1  0
 34 31  1  0
 35 33  2  0
 33 36  1  0
 37 34  2  0
 38 35  1  0
 36 39  2  0
 36 37  1  0
 40 38  2  0
 40 39  1  0
 39 41  1  0
  6 42  1  6
  7 43  1  0
  7 44  1  0
  8 45  1  0
  8 46  1  0
 12 47  1  0
 12 48  1  0
 15 49  1  0
 17 50  1  0
 18 51  1  0
 21 52  1  0
 24 53  1  0
 24 54  1  0
 25 55  1  0
 27 56  1  0
 28 57  1  0
 29 58  1  0
 30 59  1  0
 32 60  1  0
 34 61  1  0
 38 62  1  0
 41 63  1  0
 41 64  1  0
M  CHG  3   5  -1  16   1  19  -1
M  END
>  <EmbedRMS>  (618) 
0.0879056908768337

$$$$

     RDKit          3D

 64 67  0  0  0  0  0  0  0  0999 V2000
   10.2860   43.7721   33.8047 C   0  0  0  0  0  0  0  0  0  0  0  0
   11.4085   43.5885   34.3610 O   0  0  0  0  0  0  0  0  0  0  0  0
    9.3673   42.7311   33.6995 O   0  0  0  0  0  0  0  0  0  0  0  0
    9.8853   41.2343   34.2839 P   0  0  0  0  0  5  0  0  0  0  0  0
   10.3662   41.4700   35.8743 O   0  0  0  0  0  1  0  0  0  0  0  0
    9.9531   45.1147   33.2530 C   0  0  2  0  0  0  0  0  0  0  0  0
   11.0711   46.0334   33.4769 N   0  0  0  0  0  0  0  0  0  0  0  0
    8.6597   45.6656   33.8869 C   0  0  0  0  0  0  0  0  0  0  0  0
    8.7912   45.8683   35.3672 C   0  0  0  0  0  0  0  0  0  0  0  0
    9.3558   47.0537   35.8503 O   0  0  0  0  0  0  0  0  0  0  0  0
    8.4318   44.9541   36.1581 O   0  0  0  0  0  0  0  0  0  0  0  0
    9.4939   47.3540   37.2377 C   0  0  0  0  0  0  0  0  0  0  0  0
    8.1550   47.7017   37.8445 C   0  0  0  0  0  0  0  0  0  0  0  0
    7.5506   48.9777   37.6724 C   0  0  0  0  0  0  0  0  0  0  0  0
    7.4974   46.7296   38.6207 C   0  0  0  0  0  0  0  0  0  0  0  0
    8.1623   50.0176   36.8861 N   0  0  0  0  0  4  0  0  0  0  0  0
    6.3246   49.2437   38.3088 C   0  0  0  0  0  0  0  0  0  0  0  0
    6.2742   47.0107   39.2295 C   0  0  0  0  0  0  0  0  0  0  0  0
    7.9252   51.3382   37.1919 O   0  0  0  0  0  1  0  0  0  0  0  0
    8.7716   49.7487   35.8310 O   0  0  0  0  0  0  0  0  0  0  0  0
    5.6908   48.2663   39.0770 C   0  0  0  0  0  0  0  0  0  0  0  0
    8.8077   40.1915   34.2086 O   0  0  0  0  0  0  0  0  0  0  0  0
   11.2368   40.7908   33.3672 O   0  0  0  0  0  0  0  0  0  0  0  0
   10.9136   40.6860   31.9946 C   0  0  0  0  0  0  0  0  0  0  0  0
   11.5170   39.3797   31.4409 C   0  0  0  0  0  0  0  0  0  0  0  0
   12.7488   39.0886   32.0762 O   0  0  0  0  0  0  0  0  0  0  0  0
   10.6051   38.1876   31.6659 C   0  0  0  0  0  0  0  0  0  0  0  0
   12.9412   37.6828   32.0278 C   0  0  0  0  0  0  0  0  0  0  0  0
    9.6358   38.0930   30.6503 O   0  0  0  0  0  0  0  0  0  0  0  0
   11.5827   37.0179   31.6936 C   0  0  0  0  0  0  0  0  0  0  0  0
   13.4909   37.2176   33.3239 N   0  0  0  0  0  0  0  0  0  0  0  0
   11.6140   36.3180   30.4675 O   0  0  0  0  0  0  0  0  0  0  0  0
   14.4762   36.3270   33.5733 C   0  0  0  0  0  0  0  0  0  0  0  0
   13.1179   37.6316   34.5689 C   0  0  0  0  0  0  0  0  0  0  0  0
   15.2067   35.6140   32.6743 N   0  0  0  0  0  0  0  0  0  0  0  0
   14.6731   36.2272   34.9186 C   0  0  0  0  0  0  0  0  0  0  0  0
   13.8223   37.0456   35.5785 N   0  0  0  0  0  0  0  0  0  0  0  0
   16.1639   34.7595   33.1550 C   0  0  0  0  0  0  0  0  0  0  0  0
   15.6515   35.3491   35.4134 C   0  0  0  0  0  0  0  0  0  0  0  0
   16.3793   34.6310   34.5045 N   0  0  0  0  0  0  0  0  0  0  0  0
   15.9002   35.1933   36.8092 N   0  0  0  0  0  0  0  0  0  0  0  0
    9.7845   45.0048   32.1580 H   0  0  0  0  0  0  0  0  0  0  0  0
   10.8097   46.9719   33.0955 H   0  0  0  0  0  0  0  0  0  0  0  0
   11.8828   45.7131   32.8988 H   0  0  0  0  0  0  0  0  0  0  0  0
    7.8140   44.9738   33.6792 H   0  0  0  0  0  0  0  0  0  0  0  0
    8.4029   46.6380   33.4139 H   0  0  0  0  0  0  0  0  0  0  0  0
   10.1892   48.2113   37.3556 H   0  0  0  0  0  0  0  0  0  0  0  0
    9.9689   46.4961   37.7629 H   0  0  0  0  0  0  0  0  0  0  0  0
    7.9378   45.7507   38.7652 H   0  0  0  0  0  0  0  0  0  0  0  0
    5.8472   50.2088   38.1965 H   0  0  0  0  0  0  0  0  0  0  0  0
    5.7804   46.2544   39.8259 H   0  0  0  0  0  0  0  0  0  0  0  0
    4.7434   48.4832   39.5535 H   0  0  0  0  0  0  0  0  0  0  0  0
    9.8235   40.7210   31.7581 H   0  0  0  0  0  0  0  0  0  0  0  0
   11.3856   41.5433   31.4688 H   0  0  0  0  0  0  0  0  0  0  0  0
   11.6994   39.5065   30.3488 H   0  0  0  0  0  0  0  0  0  0  0  0
   10.1120   38.2722   32.6632 H   0  0  0  0  0  0  0  0  0  0  0  0
   13.6816   37.4632   31.2269 H   0  0  0  0  0  0  0  0  0  0  0  0
    9.0037   37.3828   30.9349 H   0  0  0  0  0  0  0  0  0  0  0  0
   11.2846   36.3040   32.4928 H   0  0  0  0  0  0  0  0  0  0  0  0
   11.8849   36.9590   29.7588 H   0  0  0  0  0  0  0  0  0  0  0  0
   12.3363   38.3599   34.7441 H   0  0  0  0  0  0  0  0  0  0  0  0
   16.7574   34.1790   32.4623 H   0  0  0  0  0  0  0  0  0  0  0  0
   16.6363   34.5316   37.1418 H   0  0  0  0  0  0  0  0  0  0  0  0
   15.3529   35.7355   37.5141 H   0  0  0  0  0  0  0  0  0  0  0  0
  1  2  2  0
  1  3  1  0
  3  4  1  0
  4  5  1  0
  6  1  1  0
  7  6  1  0
  6  8  1  0
  8  9  1  0
  9 10  1  0
  9 11  2  0
 10 12  1  0
 12 13  1  0
 13 14  2  0
 15 13  1  0
 14 16  1  0
 14 17  1  0
 18 15  2  0
 16 19  1  0
 16 20  2  0
 17 21  2  0
 21 18  1  0
  4 22  2  0
  4 23  1  0
 24 23  1  0
 24 25  1  0
 25 26  1  0
 25 27  1  0
 26 28  1  0
 27 29  1  0
 27 30  1  0
 30 28  1  0
 28 31  1  0
 30 32  1  0
 33 31  1  0
 34 31  1  0
 35 33  2  0
 33 36  1  0
 37 34  2  0
 38 35  1  0
 36 39  2  0
 36 37  1  0
 40 38  2  0
 40 39  1  0
 39 41  1  0
  6 42  1  6
  7 43  1  0
  7 44  1  0
  8 45  1  0
  8 46  1  0
 12 47  1  0
 12 48  1  0
 15 49  1  0
 17 50  1  0
 18 51  1  0
 21 52  1  0
 24 53  1  0
 24 54  1  0
 25 55  1  0
 27 56  1  0
 28 57  1  0
 29 58  1  0
 30 59  1  0
 32 60  1  0
 34 61  1  0
 38 62  1  0
 41 63  1  0
 41 64  1  0
M  CHG  3   5  -1  16   1  19  -1
M  END
>  <EmbedRMS>  (619) 
0.08786333946422104

$$$$

     RDKit          3D

 64 67  0  0  0  0  0  0  0  0999 V2000
   10.2822   43.7726   33.8141 C   0  0  0  0  0  0  0  0  0  0  0  0
   11.4065   43.5832   34.3650 O   0  0  0  0  0  0  0  0  0  0  0  0
    9.3673   42.7292   33.7013 O   0  0  0  0  0  0  0  0  0  0  0  0
    9.8858   41.2320   34.2835 P   0  0  0  0  0  5  0  0  0  0  0  0
   10.3659   41.4671   35.8743 O   0  0  0  0  0  1  0  0  0  0  0  0
    9.9584   45.1177   33.2495 C   0  0  2  0  0  0  0  0  0  0  0  0
   11.0710   46.0441   33.4686 N   0  0  0  0  0  0  0  0  0  0  0  0
    8.6793   45.7101   33.8742 C   0  0  0  0  0  0  0  0  0  0  0  0
    7.4399   44.9456   33.5125 C   0  0  0  0  0  0  0  0  0  0  0  0
    6.5337   44.5968   34.5179 O   0  0  0  0  0  0  0  0  0  0  0  0
    7.2014   44.6610   32.3065 O   0  0  0  0  0  0  0  0  0  0  0  0
    5.3698   43.8166   34.2662 C   0  0  0  0  0  0  0  0  0  0  0  0
    4.5414   43.7274   35.5214 C   0  0  0  0  0  0  0  0  0  0  0  0
    4.7789   42.7436   36.5166 C   0  0  0  0  0  0  0  0  0  0  0  0
    3.4973   44.6520   35.7040 C   0  0  0  0  0  0  0  0  0  0  0  0
    5.8714   41.8143   36.4147 N   0  0  0  0  0  4  0  0  0  0  0  0
    3.9264   42.6796   37.6340 C   0  0  0  0  0  0  0  0  0  0  0  0
    2.6737   44.5827   36.8285 C   0  0  0  0  0  0  0  0  0  0  0  0
    7.1097   42.2410   35.9964 O   0  0  0  0  0  1  0  0  0  0  0  0
    5.7594   40.6619   36.8816 O   0  0  0  0  0  0  0  0  0  0  0  0
    2.8827   43.5934   37.7875 C   0  0  0  0  0  0  0  0  0  0  0  0
    8.8081   40.1894   34.2073 O   0  0  0  0  0  0  0  0  0  0  0  0
   11.2375   40.7897   33.3674 O   0  0  0  0  0  0  0  0  0  0  0  0
   10.9154   40.6881   31.9945 C   0  0  0  0  0  0  0  0  0  0  0  0
   11.5261   39.3870   31.4362 C   0  0  0  0  0  0  0  0  0  0  0  0
   12.7491   39.0892   32.0817 O   0  0  0  0  0  0  0  0  0  0  0  0
   10.6123   38.1893   31.6461 C   0  0  0  0  0  0  0  0  0  0  0  0
   12.9373   37.6826   32.0300 C   0  0  0  0  0  0  0  0  0  0  0  0
    9.6149   38.0838   30.6538 O   0  0  0  0  0  0  0  0  0  0  0  0
   11.5792   37.0136   31.7014 C   0  0  0  0  0  0  0  0  0  0  0  0
   13.4906   37.2170   33.3242 N   0  0  0  0  0  0  0  0  0  0  0  0
   11.6216   36.3252   30.4725 O   0  0  0  0  0  0  0  0  0  0  0  0
   14.4763   36.3266   33.5731 C   0  0  0  0  0  0  0  0  0  0  0  0
   13.1181   37.6308   34.5694 C   0  0  0  0  0  0  0  0  0  0  0  0
   15.2065   35.6137   32.6740 N   0  0  0  0  0  0  0  0  0  0  0  0
   14.6735   36.2270   34.9185 C   0  0  0  0  0  0  0  0  0  0  0  0
   13.8228   37.0451   35.5787 N   0  0  0  0  0  0  0  0  0  0  0  0
   16.1639   34.7593   33.1547 C   0  0  0  0  0  0  0  0  0  0  0  0
   15.6518   35.3489   35.4132 C   0  0  0  0  0  0  0  0  0  0  0  0
   16.3794   34.6308   34.5042 N   0  0  0  0  0  0  0  0  0  0  0  0
   15.9006   35.1931   36.8090 N   0  0  0  0  0  0  0  0  0  0  0  0
    9.8103   45.0090   32.1524 H   0  0  0  0  0  0  0  0  0  0  0  0
   11.2862   46.1167   34.4907 H   0  0  0  0  0  0  0  0  0  0  0  0
   11.9228   45.6903   32.9738 H   0  0  0  0  0  0  0  0  0  0  0  0
    8.5500   46.7554   33.5195 H   0  0  0  0  0  0  0  0  0  0  0  0
    8.7840   45.7421   34.9811 H   0  0  0  0  0  0  0  0  0  0  0  0
    4.7769   44.2853   33.4498 H   0  0  0  0  0  0  0  0  0  0  0  0
    5.6599   42.8024   33.9168 H   0  0  0  0  0  0  0  0  0  0  0  0
    3.3116   45.4232   34.9663 H   0  0  0  0  0  0  0  0  0  0  0  0
    4.0850   41.9323   38.4013 H   0  0  0  0  0  0  0  0  0  0  0  0
    1.8684   45.2950   36.9537 H   0  0  0  0  0  0  0  0  0  0  0  0
    2.2403   43.5396   38.6571 H   0  0  0  0  0  0  0  0  0  0  0  0
   11.3827   41.5502   31.4722 H   0  0  0  0  0  0  0  0  0  0  0  0
    9.8252   40.7181   31.7577 H   0  0  0  0  0  0  0  0  0  0  0  0
   11.7291   39.5284   30.3501 H   0  0  0  0  0  0  0  0  0  0  0  0
   10.1140   38.2720   32.6379 H   0  0  0  0  0  0  0  0  0  0  0  0
   13.6725   37.4635   31.2240 H   0  0  0  0  0  0  0  0  0  0  0  0
   10.0534   38.1084   29.7638 H   0  0  0  0  0  0  0  0  0  0  0  0
   11.2645   36.3134   32.5107 H   0  0  0  0  0  0  0  0  0  0  0  0
   12.1548   35.5031   30.6316 H   0  0  0  0  0  0  0  0  0  0  0  0
   12.3361   38.3586   34.7450 H   0  0  0  0  0  0  0  0  0  0  0  0
   16.7573   34.1788   32.4619 H   0  0  0  0  0  0  0  0  0  0  0  0
   15.3533   35.7353   37.5139 H   0  0  0  0  0  0  0  0  0  0  0  0
   16.6366   34.5314   37.1415 H   0  0  0  0  0  0  0  0  0  0  0  0
  1  2  2  0
  1  3  1  0
  3  4  1  0
  4  5  1  0
  6  1  1  0
  7  6  1  0
  6  8  1  0
  8  9  1  0
  9 10  1  0
  9 11  2  0
 10 12  1  0
 12 13  1  0
 13 14  2  0
 15 13  1  0
 14 16  1  0
 14 17  1  0
 18 15  2  0
 16 19  1  0
 16 20  2  0
 17 21  2  0
 21 18  1  0
  4 22  2  0
  4 23  1  0
 24 23  1  0
 24 25  1  0
 25 26  1  0
 25 27  1  0
 26 28  1  0
 27 29  1  0
 27 30  1  0
 30 28  1  0
 28 31  1  0
 30 32  1  0
 33 31  1  0
 34 31  1  0
 35 33  2  0
 33 36  1  0
 37 34  2  0
 38 35  1  0
 36 39  2  0
 36 37  1  0
 40 38  2  0
 40 39  1  0
 39 41  1  0
  6 42  1  6
  7 43  1  0
  7 44  1  0
  8 45  1  0
  8 46  1  0
 12 47  1  0
 12 48  1  0
 15 49  1  0
 17 50  1  0
 18 51  1  0
 21 52  1  0
 24 53  1  0
 24 54  1  0
 25 55  1  0
 27 56  1  0
 28 57  1  0
 29 58  1  0
 30 59  1  0
 32 60  1  0
 34 61  1  0
 38 62  1  0
 41 63  1  0
 41 64  1  0
M  CHG  3   5  -1  16   1  19  -1
M  END
>  <EmbedRMS>  (620) 
0.0886181627232927

$$$$

     RDKit          3D

 64 67  0  0  0  0  0  0  0  0999 V2000
   10.2874   43.7710   33.8019 C   0  0  0  0  0  0  0  0  0  0  0  0
   11.4095   43.5877   34.3590 O   0  0  0  0  0  0  0  0  0  0  0  0
    9.3681   42.7305   33.6980 O   0  0  0  0  0  0  0  0  0  0  0  0
    9.8853   41.2343   34.2846 P   0  0  0  0  0  5  0  0  0  0  0  0
   10.3645   41.4713   35.8753 O   0  0  0  0  0  1  0  0  0  0  0  0
    9.9518   45.1156   33.2560 C   0  0  2  0  0  0  0  0  0  0  0  0
   11.0706   46.0335   33.4779 N   0  0  0  0  0  0  0  0  0  0  0  0
    8.6627   45.6647   33.9007 C   0  0  0  0  0  0  0  0  0  0  0  0
    8.7965   45.8322   35.3852 C   0  0  0  0  0  0  0  0  0  0  0  0
    8.5630   44.7341   36.2226 O   0  0  0  0  0  0  0  0  0  0  0  0
    9.1471   46.9460   35.8622 O   0  0  0  0  0  0  0  0  0  0  0  0
    8.7251   44.7749   37.6408 C   0  0  0  0  0  0  0  0  0  0  0  0
    7.4633   45.1972   38.3711 C   0  0  0  0  0  0  0  0  0  0  0  0
    7.3513   45.0327   39.7809 C   0  0  0  0  0  0  0  0  0  0  0  0
    6.3681   45.7361   37.6619 C   0  0  0  0  0  0  0  0  0  0  0  0
    8.4272   44.5010   40.5769 N   0  0  0  0  0  4  0  0  0  0  0  0
    6.1483   45.3792   40.4214 C   0  0  0  0  0  0  0  0  0  0  0  0
    5.1907   46.0874   38.3228 C   0  0  0  0  0  0  0  0  0  0  0  0
    8.1473   43.7926   41.7230 O   0  0  0  0  0  1  0  0  0  0  0  0
    9.6121   44.8139   40.3417 O   0  0  0  0  0  0  0  0  0  0  0  0
    5.0793   45.9057   39.6981 C   0  0  0  0  0  0  0  0  0  0  0  0
    8.8079   40.1914   34.2085 O   0  0  0  0  0  0  0  0  0  0  0  0
   11.2380   40.7899   33.3703 O   0  0  0  0  0  0  0  0  0  0  0  0
   10.9190   40.6904   31.9966 C   0  0  0  0  0  0  0  0  0  0  0  0
   11.5176   39.3824   31.4413 C   0  0  0  0  0  0  0  0  0  0  0  0
   12.7496   39.0892   32.0755 O   0  0  0  0  0  0  0  0  0  0  0  0
   10.6036   38.1899   31.6660 C   0  0  0  0  0  0  0  0  0  0  0  0
   12.9401   37.6833   32.0276 C   0  0  0  0  0  0  0  0  0  0  0  0
    9.6377   38.0786   30.6474 O   0  0  0  0  0  0  0  0  0  0  0  0
   11.5803   37.0204   31.6937 C   0  0  0  0  0  0  0  0  0  0  0  0
   13.4902   37.2177   33.3237 N   0  0  0  0  0  0  0  0  0  0  0  0
   11.6117   36.3193   30.4680 O   0  0  0  0  0  0  0  0  0  0  0  0
   14.4759   36.3271   33.5731 C   0  0  0  0  0  0  0  0  0  0  0  0
   13.1176   37.6317   34.5688 C   0  0  0  0  0  0  0  0  0  0  0  0
   15.2064   35.6141   32.6742 N   0  0  0  0  0  0  0  0  0  0  0  0
   14.6729   36.2274   34.9184 C   0  0  0  0  0  0  0  0  0  0  0  0
   13.8221   37.0457   35.5783 N   0  0  0  0  0  0  0  0  0  0  0  0
   16.1637   34.7597   33.1549 C   0  0  0  0  0  0  0  0  0  0  0  0
   15.6514   35.3493   35.4133 C   0  0  0  0  0  0  0  0  0  0  0  0
   16.3791   34.6312   34.5044 N   0  0  0  0  0  0  0  0  0  0  0  0
   15.9001   35.1935   36.8091 N   0  0  0  0  0  0  0  0  0  0  0  0
    9.7769   45.0102   32.1616 H   0  0  0  0  0  0  0  0  0  0  0  0
   10.8082   46.9726   33.0990 H   0  0  0  0  0  0  0  0  0  0  0  0
   11.8802   45.7139   32.8964 H   0  0  0  0  0  0  0  0  0  0  0  0
    8.4050   46.6431   33.4396 H   0  0  0  0  0  0  0  0  0  0  0  0
    7.8155   44.9766   33.6897 H   0  0  0  0  0  0  0  0  0  0  0  0
    8.9965   43.7500   37.9712 H   0  0  0  0  0  0  0  0  0  0  0  0
    9.5653   45.4518   37.9063 H   0  0  0  0  0  0  0  0  0  0  0  0
    6.4039   45.8784   36.5916 H   0  0  0  0  0  0  0  0  0  0  0  0
    6.0430   45.2567   41.4920 H   0  0  0  0  0  0  0  0  0  0  0  0
    4.3586   46.4961   37.7639 H   0  0  0  0  0  0  0  0  0  0  0  0
    4.1627   46.1757   40.2066 H   0  0  0  0  0  0  0  0  0  0  0  0
    9.8312   40.7398   31.7562 H   0  0  0  0  0  0  0  0  0  0  0  0
   11.4002   41.5455   31.4754 H   0  0  0  0  0  0  0  0  0  0  0  0
   11.6989   39.5093   30.3490 H   0  0  0  0  0  0  0  0  0  0  0  0
   10.1130   38.2589   32.6664 H   0  0  0  0  0  0  0  0  0  0  0  0
   13.6800   37.4626   31.2265 H   0  0  0  0  0  0  0  0  0  0  0  0
    8.8954   38.6910   30.8891 H   0  0  0  0  0  0  0  0  0  0  0  0
   11.2830   36.3060   32.4929 H   0  0  0  0  0  0  0  0  0  0  0  0
   11.8859   36.9589   29.7593 H   0  0  0  0  0  0  0  0  0  0  0  0
   12.3360   38.3600   34.7441 H   0  0  0  0  0  0  0  0  0  0  0  0
   16.7572   34.1793   32.4621 H   0  0  0  0  0  0  0  0  0  0  0  0
   15.3528   35.7357   37.5140 H   0  0  0  0  0  0  0  0  0  0  0  0
   16.6362   34.5318   37.1416 H   0  0  0  0  0  0  0  0  0  0  0  0
  1  2  2  0
  1  3  1  0
  3  4  1  0
  4  5  1  0
  6  1  1  0
  7  6  1  0
  6  8  1  0
  8  9  1  0
  9 10  1  0
  9 11  2  0
 10 12  1  0
 12 13  1  0
 13 14  2  0
 15 13  1  0
 14 16  1  0
 14 17  1  0
 18 15  2  0
 16 19  1  0
 16 20  2  0
 17 21  2  0
 21 18  1  0
  4 22  2  0
  4 23  1  0
 24 23  1  0
 24 25  1  0
 25 26  1  0
 25 27  1  0
 26 28  1  0
 27 29  1  0
 27 30  1  0
 30 28  1  0
 28 31  1  0
 30 32  1  0
 33 31  1  0
 34 31  1  0
 35 33  2  0
 33 36  1  0
 37 34  2  0
 38 35  1  0
 36 39  2  0
 36 37  1  0
 40 38  2  0
 40 39  1  0
 39 41  1  0
  6 42  1  6
  7 43  1  0
  7 44  1  0
  8 45  1  0
  8 46  1  0
 12 47  1  0
 12 48  1  0
 15 49  1  0
 17 50  1  0
 18 51  1  0
 21 52  1  0
 24 53  1  0
 24 54  1  0
 25 55  1  0
 27 56  1  0
 28 57  1  0
 29 58  1  0
 30 59  1  0
 32 60  1  0
 34 61  1  0
 38 62  1  0
 41 63  1  0
 41 64  1  0
M  CHG  3   5  -1  16   1  19  -1
M  END
>  <EmbedRMS>  (621) 
0.08834517664107255

$$$$

     RDKit          3D

 64 67  0  0  0  0  0  0  0  0999 V2000
   10.2809   43.7754   33.8090 C   0  0  0  0  0  0  0  0  0  0  0  0
   11.4047   43.5909   34.3632 O   0  0  0  0  0  0  0  0  0  0  0  0
    9.3678   42.7305   33.6982 O   0  0  0  0  0  0  0  0  0  0  0  0
    9.8861   41.2341   34.2828 P   0  0  0  0  0  5  0  0  0  0  0  0
   10.3662   41.4697   35.8735 O   0  0  0  0  0  1  0  0  0  0  0  0
    9.9432   45.1236   33.2665 C   0  0  2  0  0  0  0  0  0  0  0  0
   11.0826   46.0216   33.4628 N   0  0  0  0  0  0  0  0  0  0  0  0
    8.7057   45.7065   33.9816 C   0  0  0  0  0  0  0  0  0  0  0  0
    7.4429   44.9795   33.6283 C   0  0  0  0  0  0  0  0  0  0  0  0
    7.0444   44.9023   32.2912 O   0  0  0  0  0  0  0  0  0  0  0  0
    6.7418   44.4604   34.5393 O   0  0  0  0  0  0  0  0  0  0  0  0
    5.8112   44.3176   31.8848 C   0  0  0  0  0  0  0  0  0  0  0  0
    5.7565   44.2572   30.3791 C   0  0  0  0  0  0  0  0  0  0  0  0
    6.7454   43.5764   29.6203 C   0  0  0  0  0  0  0  0  0  0  0  0
    4.7284   44.9445   29.7080 C   0  0  0  0  0  0  0  0  0  0  0  0
    7.8086   42.8413   30.2509 N   0  0  0  0  0  4  0  0  0  0  0  0
    6.6895   43.6294   28.2158 C   0  0  0  0  0  0  0  0  0  0  0  0
    4.6817   44.9702   28.3133 C   0  0  0  0  0  0  0  0  0  0  0  0
    7.5476   42.0214   31.3232 O   0  0  0  0  0  1  0  0  0  0  0  0
    8.9388   42.7977   29.7223 O   0  0  0  0  0  0  0  0  0  0  0  0
    5.6628   44.3182   27.5688 C   0  0  0  0  0  0  0  0  0  0  0  0
    8.8082   40.1916   34.2074 O   0  0  0  0  0  0  0  0  0  0  0  0
   11.2379   40.7909   33.3667 O   0  0  0  0  0  0  0  0  0  0  0  0
   10.9146   40.6851   31.9943 C   0  0  0  0  0  0  0  0  0  0  0  0
   11.5180   39.3795   31.4406 C   0  0  0  0  0  0  0  0  0  0  0  0
   12.7495   39.0883   32.0761 O   0  0  0  0  0  0  0  0  0  0  0  0
   10.6056   38.1877   31.6657 C   0  0  0  0  0  0  0  0  0  0  0  0
   12.9414   37.6825   32.0277 C   0  0  0  0  0  0  0  0  0  0  0  0
    9.6362   38.0935   30.6501 O   0  0  0  0  0  0  0  0  0  0  0  0
   11.5828   37.0178   31.6935 C   0  0  0  0  0  0  0  0  0  0  0  0
   13.4909   37.2174   33.3239 N   0  0  0  0  0  0  0  0  0  0  0  0
   11.6141   36.3180   30.4673 O   0  0  0  0  0  0  0  0  0  0  0  0
   14.4763   36.3269   33.5734 C   0  0  0  0  0  0  0  0  0  0  0  0
   13.1179   37.6315   34.5688 C   0  0  0  0  0  0  0  0  0  0  0  0
   15.2068   35.6139   32.6744 N   0  0  0  0  0  0  0  0  0  0  0  0
   14.6732   36.2272   34.9187 C   0  0  0  0  0  0  0  0  0  0  0  0
   13.8223   37.0456   35.5785 N   0  0  0  0  0  0  0  0  0  0  0  0
   16.1640   34.7594   33.1551 C   0  0  0  0  0  0  0  0  0  0  0  0
   15.6515   35.3491   35.4135 C   0  0  0  0  0  0  0  0  0  0  0  0
   16.3793   34.6310   34.5046 N   0  0  0  0  0  0  0  0  0  0  0  0
   15.9002   35.1933   36.8093 N   0  0  0  0  0  0  0  0  0  0  0  0
    9.7372   45.0297   32.1759 H   0  0  0  0  0  0  0  0  0  0  0  0
   10.8396   46.9592   33.0673 H   0  0  0  0  0  0  0  0  0  0  0  0
   11.8798   45.6763   32.8787 H   0  0  0  0  0  0  0  0  0  0  0  0
    8.8631   45.6896   35.0832 H   0  0  0  0  0  0  0  0  0  0  0  0
    8.5695   46.7680   33.6826 H   0  0  0  0  0  0  0  0  0  0  0  0
    4.9756   44.9278   32.2922 H   0  0  0  0  0  0  0  0  0  0  0  0
    5.7035   43.2968   32.3067 H   0  0  0  0  0  0  0  0  0  0  0  0
    3.9640   45.4733   30.2640 H   0  0  0  0  0  0  0  0  0  0  0  0
    7.4360   43.1201   27.6194 H   0  0  0  0  0  0  0  0  0  0  0  0
    3.8867   45.5042   27.8088 H   0  0  0  0  0  0  0  0  0  0  0  0
    5.6267   44.3440   26.4873 H   0  0  0  0  0  0  0  0  0  0  0  0
    9.8256   40.7138   31.7595 H   0  0  0  0  0  0  0  0  0  0  0  0
   11.3828   41.5438   31.4672 H   0  0  0  0  0  0  0  0  0  0  0  0
   11.7004   39.5065   30.3485 H   0  0  0  0  0  0  0  0  0  0  0  0
   10.1126   38.2724   32.6630 H   0  0  0  0  0  0  0  0  0  0  0  0
   13.6819   37.4627   31.2269 H   0  0  0  0  0  0  0  0  0  0  0  0
    9.0026   37.3849   30.9357 H   0  0  0  0  0  0  0  0  0  0  0  0
   11.2845   36.3040   32.4927 H   0  0  0  0  0  0  0  0  0  0  0  0
   11.8851   36.9590   29.7587 H   0  0  0  0  0  0  0  0  0  0  0  0
   12.3363   38.3598   34.7440 H   0  0  0  0  0  0  0  0  0  0  0  0
   16.7575   34.1790   32.4624 H   0  0  0  0  0  0  0  0  0  0  0  0
   15.3529   35.7355   37.5142 H   0  0  0  0  0  0  0  0  0  0  0  0
   16.6363   34.5317   37.1418 H   0  0  0  0  0  0  0  0  0  0  0  0
  1  2  2  0
  1  3  1  0
  3  4  1  0
  4  5  1  0
  6  1  1  0
  7  6  1  0
  6  8  1  0
  8  9  1  0
  9 10  1  0
  9 11  2  0
 10 12  1  0
 12 13  1  0
 13 14  2  0
 15 13  1  0
 14 16  1  0
 14 17  1  0
 18 15  2  0
 16 19  1  0
 16 20  2  0
 17 21  2  0
 21 18  1  0
  4 22  2  0
  4 23  1  0
 24 23  1  0
 24 25  1  0
 25 26  1  0
 25 27  1  0
 26 28  1  0
 27 29  1  0
 27 30  1  0
 30 28  1  0
 28 31  1  0
 30 32  1  0
 33 31  1  0
 34 31  1  0
 35 33  2  0
 33 36  1  0
 37 34  2  0
 38 35  1  0
 36 39  2  0
 36 37  1  0
 40 38  2  0
 40 39  1  0
 39 41  1  0
  6 42  1  6
  7 43  1  0
  7 44  1  0
  8 45  1  0
  8 46  1  0
 12 47  1  0
 12 48  1  0
 15 49  1  0
 17 50  1  0
 18 51  1  0
 21 52  1  0
 24 53  1  0
 24 54  1  0
 25 55  1  0
 27 56  1  0
 28 57  1  0
 29 58  1  0
 30 59  1  0
 32 60  1  0
 34 61  1  0
 38 62  1  0
 41 63  1  0
 41 64  1  0
M  CHG  3   5  -1  16   1  19  -1
M  END
>  <EmbedRMS>  (622) 
0.08833084937996288

$$$$

     RDKit          3D

 64 67  0  0  0  0  0  0  0  0999 V2000
   10.2844   43.7743   33.8071 C   0  0  0  0  0  0  0  0  0  0  0  0
   11.4069   43.5904   34.3637 O   0  0  0  0  0  0  0  0  0  0  0  0
    9.3680   42.7310   33.6991 O   0  0  0  0  0  0  0  0  0  0  0  0
    9.8860   41.2342   34.2839 P   0  0  0  0  0  5  0  0  0  0  0  0
   10.3656   41.4697   35.8747 O   0  0  0  0  0  1  0  0  0  0  0  0
    9.9498   45.1159   33.2537 C   0  0  2  0  0  0  0  0  0  0  0  0
   11.0750   46.0281   33.4739 N   0  0  0  0  0  0  0  0  0  0  0  0
    8.6772   45.6534   33.9375 C   0  0  0  0  0  0  0  0  0  0  0  0
    8.1775   46.8981   33.2711 C   0  0  0  0  0  0  0  0  0  0  0  0
    7.6271   46.8154   31.9894 O   0  0  0  0  0  0  0  0  0  0  0  0
    8.2727   48.0091   33.8609 O   0  0  0  0  0  0  0  0  0  0  0  0
    7.1483   47.9545   31.2832 C   0  0  0  0  0  0  0  0  0  0  0  0
    6.6248   47.5244   29.9380 C   0  0  0  0  0  0  0  0  0  0  0  0
    5.3009   47.0394   29.7580 C   0  0  0  0  0  0  0  0  0  0  0  0
    7.4859   47.6013   28.8286 C   0  0  0  0  0  0  0  0  0  0  0  0
    4.3872   46.8840   30.8592 N   0  0  0  0  0  4  0  0  0  0  0  0
    4.8662   46.7055   28.4628 C   0  0  0  0  0  0  0  0  0  0  0  0
    7.0392   47.2475   27.5549 C   0  0  0  0  0  0  0  0  0  0  0  0
    3.0329   47.0085   30.6499 O   0  0  0  0  0  1  0  0  0  0  0  0
    4.7862   46.4613   31.9635 O   0  0  0  0  0  0  0  0  0  0  0  0
    5.7297   46.8080   27.3711 C   0  0  0  0  0  0  0  0  0  0  0  0
    8.8086   40.1912   34.2076 O   0  0  0  0  0  0  0  0  0  0  0  0
   11.2386   40.7906   33.3693 O   0  0  0  0  0  0  0  0  0  0  0  0
   10.9191   40.6905   31.9958 C   0  0  0  0  0  0  0  0  0  0  0  0
   11.5176   39.3823   31.4410 C   0  0  0  0  0  0  0  0  0  0  0  0
   12.7495   39.0892   32.0755 O   0  0  0  0  0  0  0  0  0  0  0  0
   10.6036   38.1899   31.6659 C   0  0  0  0  0  0  0  0  0  0  0  0
   12.9401   37.6833   32.0276 C   0  0  0  0  0  0  0  0  0  0  0  0
    9.6376   38.0785   30.6474 O   0  0  0  0  0  0  0  0  0  0  0  0
   11.5803   37.0203   31.6937 C   0  0  0  0  0  0  0  0  0  0  0  0
   13.4902   37.2177   33.3237 N   0  0  0  0  0  0  0  0  0  0  0  0
   11.6117   36.3192   30.4680 O   0  0  0  0  0  0  0  0  0  0  0  0
   14.4759   36.3271   33.5731 C   0  0  0  0  0  0  0  0  0  0  0  0
   13.1176   37.6317   34.5688 C   0  0  0  0  0  0  0  0  0  0  0  0
   15.2064   35.6141   32.6742 N   0  0  0  0  0  0  0  0  0  0  0  0
   14.6729   36.2274   34.9184 C   0  0  0  0  0  0  0  0  0  0  0  0
   13.8221   37.0457   35.5783 N   0  0  0  0  0  0  0  0  0  0  0  0
   16.1637   34.7597   33.1549 C   0  0  0  0  0  0  0  0  0  0  0  0
   15.6514   35.3493   35.4133 C   0  0  0  0  0  0  0  0  0  0  0  0
   16.3791   34.6312   34.5044 N   0  0  0  0  0  0  0  0  0  0  0  0
   15.9002   35.1935   36.8091 N   0  0  0  0  0  0  0  0  0  0  0  0
    9.7674   45.0028   32.1607 H   0  0  0  0  0  0  0  0  0  0  0  0
   11.8940   45.6812   32.9220 H   0  0  0  0  0  0  0  0  0  0  0  0
   10.8422   46.9576   33.0557 H   0  0  0  0  0  0  0  0  0  0  0  0
    8.8808   45.8526   35.0133 H   0  0  0  0  0  0  0  0  0  0  0  0
    7.8660   44.8952   33.8818 H   0  0  0  0  0  0  0  0  0  0  0  0
    6.3506   48.4628   31.8664 H   0  0  0  0  0  0  0  0  0  0  0  0
    7.9765   48.6869   31.1604 H   0  0  0  0  0  0  0  0  0  0  0  0
    8.5056   47.9471   28.9476 H   0  0  0  0  0  0  0  0  0  0  0  0
    3.8595   46.3422   28.2997 H   0  0  0  0  0  0  0  0  0  0  0  0
    7.7092   47.3185   26.7077 H   0  0  0  0  0  0  0  0  0  0  0  0
    5.3847   46.5375   26.3815 H   0  0  0  0  0  0  0  0  0  0  0  0
   11.4001   41.5453   31.4741 H   0  0  0  0  0  0  0  0  0  0  0  0
    9.8312   40.7397   31.7557 H   0  0  0  0  0  0  0  0  0  0  0  0
   11.6990   39.5089   30.3487 H   0  0  0  0  0  0  0  0  0  0  0  0
   10.1131   38.2590   32.6663 H   0  0  0  0  0  0  0  0  0  0  0  0
   13.6800   37.4626   31.2265 H   0  0  0  0  0  0  0  0  0  0  0  0
    8.8954   38.6910   30.8890 H   0  0  0  0  0  0  0  0  0  0  0  0
   11.2830   36.3060   32.4929 H   0  0  0  0  0  0  0  0  0  0  0  0
   11.8859   36.9588   29.7593 H   0  0  0  0  0  0  0  0  0  0  0  0
   12.3360   38.3600   34.7441 H   0  0  0  0  0  0  0  0  0  0  0  0
   16.7572   34.1793   32.4621 H   0  0  0  0  0  0  0  0  0  0  0  0
   15.3528   35.7357   37.5140 H   0  0  0  0  0  0  0  0  0  0  0  0
   16.6362   34.5318   37.1416 H   0  0  0  0  0  0  0  0  0  0  0  0
  1  2  2  0
  1  3  1  0
  3  4  1  0
  4  5  1  0
  6  1  1  0
  7  6  1  0
  6  8  1  0
  8  9  1  0
  9 10  1  0
  9 11  2  0
 10 12  1  0
 12 13  1  0
 13 14  2  0
 15 13  1  0
 14 16  1  0
 14 17  1  0
 18 15  2  0
 16 19  1  0
 16 20  2  0
 17 21  2  0
 21 18  1  0
  4 22  2  0
  4 23  1  0
 24 23  1  0
 24 25  1  0
 25 26  1  0
 25 27  1  0
 26 28  1  0
 27 29  1  0
 27 30  1  0
 30 28  1  0
 28 31  1  0
 30 32  1  0
 33 31  1  0
 34 31  1  0
 35 33  2  0
 33 36  1  0
 37 34  2  0
 38 35  1  0
 36 39  2  0
 36 37  1  0
 40 38  2  0
 40 39  1  0
 39 41  1  0
  6 42  1  6
  7 43  1  0
  7 44  1  0
  8 45  1  0
  8 46  1  0
 12 47  1  0
 12 48  1  0
 15 49  1  0
 17 50  1  0
 18 51  1  0
 21 52  1  0
 24 53  1  0
 24 54  1  0
 25 55  1  0
 27 56  1  0
 28 57  1  0
 29 58  1  0
 30 59  1  0
 32 60  1  0
 34 61  1  0
 38 62  1  0
 41 63  1  0
 41 64  1  0
M  CHG  3   5  -1  16   1  19  -1
M  END
>  <EmbedRMS>  (623) 
0.08837028932417738

$$$$

     RDKit          3D

 64 67  0  0  0  0  0  0  0  0999 V2000
   10.2811   43.7767   33.8104 C   0  0  0  0  0  0  0  0  0  0  0  0
   11.4067   43.5928   34.3608 O   0  0  0  0  0  0  0  0  0  0  0  0
    9.3678   42.7309   33.7070 O   0  0  0  0  0  0  0  0  0  0  0  0
    9.8871   41.2334   34.2841 P   0  0  0  0  0  5  0  0  0  0  0  0
   10.3691   41.4663   35.8744 O   0  0  0  0  0  1  0  0  0  0  0  0
    9.9635   45.1113   33.2239 C   0  0  2  0  0  0  0  0  0  0  0  0
   11.0699   46.0301   33.4969 N   0  0  0  0  0  0  0  0  0  0  0  0
    8.6326   45.6845   33.7698 C   0  0  0  0  0  0  0  0  0  0  0  0
    7.4129   44.9744   33.2509 C   0  0  0  0  0  0  0  0  0  0  0  0
    7.5227   44.0633   32.1968 O   0  0  0  0  0  0  0  0  0  0  0  0
    6.2880   45.2277   33.7613 O   0  0  0  0  0  0  0  0  0  0  0  0
    6.4183   43.3468   31.6585 C   0  0  0  0  0  0  0  0  0  0  0  0
    6.9259   42.2970   30.7012 C   0  0  0  0  0  0  0  0  0  0  0  0
    7.8157   42.6107   29.6368 C   0  0  0  0  0  0  0  0  0  0  0  0
    6.5433   40.9579   30.9028 C   0  0  0  0  0  0  0  0  0  0  0  0
    8.2343   43.9602   29.3629 N   0  0  0  0  0  4  0  0  0  0  0  0
    8.3179   41.5704   28.8355 C   0  0  0  0  0  0  0  0  0  0  0  0
    7.0365   39.9447   30.0806 C   0  0  0  0  0  0  0  0  0  0  0  0
    9.4759   44.1971   28.8191 O   0  0  0  0  0  1  0  0  0  0  0  0
    7.4305   44.9098   29.4594 O   0  0  0  0  0  0  0  0  0  0  0  0
    7.9254   40.2497   29.0522 C   0  0  0  0  0  0  0  0  0  0  0  0
    8.8083   40.1918   34.2073 O   0  0  0  0  0  0  0  0  0  0  0  0
   11.2369   40.7928   33.3633 O   0  0  0  0  0  0  0  0  0  0  0  0
   10.9099   40.6845   31.9915 C   0  0  0  0  0  0  0  0  0  0  0  0
   11.5145   39.3772   31.4385 C   0  0  0  0  0  0  0  0  0  0  0  0
   12.7457   39.0865   32.0733 O   0  0  0  0  0  0  0  0  0  0  0  0
   10.6044   38.1856   31.6674 C   0  0  0  0  0  0  0  0  0  0  0  0
   12.9344   37.6800   32.0281 C   0  0  0  0  0  0  0  0  0  0  0  0
    9.6394   38.0871   30.6491 O   0  0  0  0  0  0  0  0  0  0  0  0
   11.5766   37.0128   31.7062 C   0  0  0  0  0  0  0  0  0  0  0  0
   13.4913   37.2187   33.3232 N   0  0  0  0  0  0  0  0  0  0  0  0
   11.6240   36.3368   30.4690 O   0  0  0  0  0  0  0  0  0  0  0  0
   14.4765   36.3276   33.5726 C   0  0  0  0  0  0  0  0  0  0  0  0
   13.1183   37.6321   34.5685 C   0  0  0  0  0  0  0  0  0  0  0  0
   15.2065   35.6141   32.6738 N   0  0  0  0  0  0  0  0  0  0  0  0
   14.6734   36.2278   34.9181 C   0  0  0  0  0  0  0  0  0  0  0  0
   13.8226   37.0459   35.5780 N   0  0  0  0  0  0  0  0  0  0  0  0
   16.1636   34.7594   33.1546 C   0  0  0  0  0  0  0  0  0  0  0  0
   15.6515   35.3493   35.4130 C   0  0  0  0  0  0  0  0  0  0  0  0
   16.3790   34.6310   34.5041 N   0  0  0  0  0  0  0  0  0  0  0  0
   15.9001   35.1934   36.8089 N   0  0  0  0  0  0  0  0  0  0  0  0
    9.8891   44.9889   32.1204 H   0  0  0  0  0  0  0  0  0  0  0  0
   11.0611   46.2972   34.5092 H   0  0  0  0  0  0  0  0  0  0  0  0
   10.9221   46.9059   32.9442 H   0  0  0  0  0  0  0  0  0  0  0  0
    8.6343   45.6446   34.8813 H   0  0  0  0  0  0  0  0  0  0  0  0
    8.5468   46.7517   33.4720 H   0  0  0  0  0  0  0  0  0  0  0  0
    5.7318   44.0420   31.1312 H   0  0  0  0  0  0  0  0  0  0  0  0
    5.8498   42.8777   32.4918 H   0  0  0  0  0  0  0  0  0  0  0  0
    5.8678   40.6918   31.7065 H   0  0  0  0  0  0  0  0  0  0  0  0
    9.0027   41.7853   28.0250 H   0  0  0  0  0  0  0  0  0  0  0  0
    6.7355   38.9185   30.2477 H   0  0  0  0  0  0  0  0  0  0  0  0
    8.3117   39.4605   28.4202 H   0  0  0  0  0  0  0  0  0  0  0  0
   11.3777   41.5418   31.4619 H   0  0  0  0  0  0  0  0  0  0  0  0
    9.8188   40.7179   31.7579 H   0  0  0  0  0  0  0  0  0  0  0  0
   11.6955   39.5009   30.3457 H   0  0  0  0  0  0  0  0  0  0  0  0
   10.1085   38.2765   32.6629 H   0  0  0  0  0  0  0  0  0  0  0  0
   13.6670   37.4558   31.2210 H   0  0  0  0  0  0  0  0  0  0  0  0
    8.9754   37.4169   30.9574 H   0  0  0  0  0  0  0  0  0  0  0  0
   11.2871   36.3041   32.5184 H   0  0  0  0  0  0  0  0  0  0  0  0
   10.8694   35.6917   30.4663 H   0  0  0  0  0  0  0  0  0  0  0  0
   12.3356   38.3592   34.7440 H   0  0  0  0  0  0  0  0  0  0  0  0
   16.7569   34.1787   32.4619 H   0  0  0  0  0  0  0  0  0  0  0  0
   16.6359   34.5315   37.1414 H   0  0  0  0  0  0  0  0  0  0  0  0
   15.3529   35.7358   37.5137 H   0  0  0  0  0  0  0  0  0  0  0  0
  1  2  2  0
  1  3  1  0
  3  4  1  0
  4  5  1  0
  6  1  1  0
  7  6  1  0
  6  8  1  0
  8  9  1  0
  9 10  1  0
  9 11  2  0
 10 12  1  0
 12 13  1  0
 13 14  2  0
 15 13  1  0
 14 16  1  0
 14 17  1  0
 18 15  2  0
 16 19  1  0
 16 20  2  0
 17 21  2  0
 21 18  1  0
  4 22  2  0
  4 23  1  0
 24 23  1  0
 24 25  1  0
 25 26  1  0
 25 27  1  0
 26 28  1  0
 27 29  1  0
 27 30  1  0
 30 28  1  0
 28 31  1  0
 30 32  1  0
 33 31  1  0
 34 31  1  0
 35 33  2  0
 33 36  1  0
 37 34  2  0
 38 35  1  0
 36 39  2  0
 36 37  1  0
 40 38  2  0
 40 39  1  0
 39 41  1  0
  6 42  1  6
  7 43  1  0
  7 44  1  0
  8 45  1  0
  8 46  1  0
 12 47  1  0
 12 48  1  0
 15 49  1  0
 17 50  1  0
 18 51  1  0
 21 52  1  0
 24 53  1  0
 24 54  1  0
 25 55  1  0
 27 56  1  0
 28 57  1  0
 29 58  1  0
 30 59  1  0
 32 60  1  0
 34 61  1  0
 38 62  1  0
 41 63  1  0
 41 64  1  0
M  CHG  3   5  -1  16   1  19  -1
M  END
>  <EmbedRMS>  (624) 
0.08907394496285582

$$$$

     RDKit          3D

 64 67  0  0  0  0  0  0  0  0999 V2000
   10.2869   43.7711   33.8023 C   0  0  0  0  0  0  0  0  0  0  0  0
   11.4089   43.5879   34.3601 O   0  0  0  0  0  0  0  0  0  0  0  0
    9.3679   42.7305   33.6980 O   0  0  0  0  0  0  0  0  0  0  0  0
    9.8858   41.2340   34.2835 P   0  0  0  0  0  5  0  0  0  0  0  0
   10.3649   41.4699   35.8741 O   0  0  0  0  0  1  0  0  0  0  0  0
    9.9503   45.1168   33.2582 C   0  0  2  0  0  0  0  0  0  0  0  0
   11.0728   46.0311   33.4750 N   0  0  0  0  0  0  0  0  0  0  0  0
    8.6656   45.6699   33.9114 C   0  0  0  0  0  0  0  0  0  0  0  0
    8.7875   45.7592   35.4035 C   0  0  0  0  0  0  0  0  0  0  0  0
    9.5503   46.7843   35.9723 O   0  0  0  0  0  0  0  0  0  0  0  0
    8.2467   44.8801   36.1282 O   0  0  0  0  0  0  0  0  0  0  0  0
   10.0405   46.7403   37.3104 C   0  0  0  0  0  0  0  0  0  0  0  0
   11.1794   45.7536   37.4101 C   0  0  0  0  0  0  0  0  0  0  0  0
   12.5057   46.0808   37.0166 C   0  0  0  0  0  0  0  0  0  0  0  0
   10.9051   44.4603   37.8917 C   0  0  0  0  0  0  0  0  0  0  0  0
   12.8532   47.3830   36.5082 N   0  0  0  0  0  4  0  0  0  0  0  0
   13.5153   45.1084   37.1455 C   0  0  0  0  0  0  0  0  0  0  0  0
   11.9196   43.5092   37.9998 C   0  0  0  0  0  0  0  0  0  0  0  0
   12.0058   48.0620   35.6645 O   0  0  0  0  0  1  0  0  0  0  0  0
   13.9971   47.8440   36.7027 O   0  0  0  0  0  0  0  0  0  0  0  0
   13.2222   43.8327   37.6285 C   0  0  0  0  0  0  0  0  0  0  0  0
    8.8083   40.1912   34.2076 O   0  0  0  0  0  0  0  0  0  0  0  0
   11.2387   40.7898   33.3690 O   0  0  0  0  0  0  0  0  0  0  0  0
   10.9199   40.6895   31.9951 C   0  0  0  0  0  0  0  0  0  0  0  0
   11.5173   39.3802   31.4398 C   0  0  0  0  0  0  0  0  0  0  0  0
   12.7480   39.0861   32.0733 O   0  0  0  0  0  0  0  0  0  0  0  0
   10.6032   38.1892   31.6667 C   0  0  0  0  0  0  0  0  0  0  0  0
   12.9336   37.6796   32.0280 C   0  0  0  0  0  0  0  0  0  0  0  0
    9.6397   38.0778   30.6457 O   0  0  0  0  0  0  0  0  0  0  0  0
   11.5739   37.0154   31.7058 C   0  0  0  0  0  0  0  0  0  0  0  0
   13.4903   37.2178   33.3231 N   0  0  0  0  0  0  0  0  0  0  0  0
   11.6210   36.3376   30.4695 O   0  0  0  0  0  0  0  0  0  0  0  0
   14.4761   36.3273   33.5725 C   0  0  0  0  0  0  0  0  0  0  0  0
   13.1179   37.6318   34.5684 C   0  0  0  0  0  0  0  0  0  0  0  0
   15.2063   35.6139   32.6738 N   0  0  0  0  0  0  0  0  0  0  0  0
   14.6733   36.2278   34.9180 C   0  0  0  0  0  0  0  0  0  0  0  0
   13.8226   37.0460   35.5780 N   0  0  0  0  0  0  0  0  0  0  0  0
   16.1636   34.7594   33.1546 C   0  0  0  0  0  0  0  0  0  0  0  0
   15.6515   35.3494   35.4129 C   0  0  0  0  0  0  0  0  0  0  0  0
   16.3791   34.6311   34.5041 N   0  0  0  0  0  0  0  0  0  0  0  0
   15.9001   35.1936   36.8088 N   0  0  0  0  0  0  0  0  0  0  0  0
    9.7698   45.0137   32.1646 H   0  0  0  0  0  0  0  0  0  0  0  0
   10.8153   46.9690   33.0901 H   0  0  0  0  0  0  0  0  0  0  0  0
   11.8823   45.7049   32.8972 H   0  0  0  0  0  0  0  0  0  0  0  0
    8.4456   46.6810   33.5064 H   0  0  0  0  0  0  0  0  0  0  0  0
    7.8036   45.0192   33.6452 H   0  0  0  0  0  0  0  0  0  0  0  0
   10.3886   47.7514   37.6072 H   0  0  0  0  0  0  0  0  0  0  0  0
    9.2156   46.4800   38.0098 H   0  0  0  0  0  0  0  0  0  0  0  0
    9.9012   44.1862   38.1910 H   0  0  0  0  0  0  0  0  0  0  0  0
   14.5333   45.3343   36.8543 H   0  0  0  0  0  0  0  0  0  0  0  0
   11.6947   42.5186   38.3736 H   0  0  0  0  0  0  0  0  0  0  0  0
   14.0076   43.0927   37.7131 H   0  0  0  0  0  0  0  0  0  0  0  0
    9.8322   40.7401   31.7547 H   0  0  0  0  0  0  0  0  0  0  0  0
   11.4020   41.5438   31.4735 H   0  0  0  0  0  0  0  0  0  0  0  0
   11.6984   39.5044   30.3471 H   0  0  0  0  0  0  0  0  0  0  0  0
   10.1091   38.2633   32.6650 H   0  0  0  0  0  0  0  0  0  0  0  0
   13.6656   37.4539   31.2208 H   0  0  0  0  0  0  0  0  0  0  0  0
    8.8967   38.6904   30.8851 H   0  0  0  0  0  0  0  0  0  0  0  0
   11.2846   36.3061   32.5176 H   0  0  0  0  0  0  0  0  0  0  0  0
   10.8523   35.7095   30.4590 H   0  0  0  0  0  0  0  0  0  0  0  0
   12.3355   38.3591   34.7440 H   0  0  0  0  0  0  0  0  0  0  0  0
   16.7570   34.1788   32.4619 H   0  0  0  0  0  0  0  0  0  0  0  0
   15.3529   35.7360   37.5136 H   0  0  0  0  0  0  0  0  0  0  0  0
   16.6360   34.5317   37.1414 H   0  0  0  0  0  0  0  0  0  0  0  0
  1  2  2  0
  1  3  1  0
  3  4  1  0
  4  5  1  0
  6  1  1  0
  7  6  1  0
  6  8  1  0
  8  9  1  0
  9 10  1  0
  9 11  2  0
 10 12  1  0
 12 13  1  0
 13 14  2  0
 15 13  1  0
 14 16  1  0
 14 17  1  0
 18 15  2  0
 16 19  1  0
 16 20  2  0
 17 21  2  0
 21 18  1  0
  4 22  2  0
  4 23  1  0
 24 23  1  0
 24 25  1  0
 25 26  1  0
 25 27  1  0
 26 28  1  0
 27 29  1  0
 27 30  1  0
 30 28  1  0
 28 31  1  0
 30 32  1  0
 33 31  1  0
 34 31  1  0
 35 33  2  0
 33 36  1  0
 37 34  2  0
 38 35  1  0
 36 39  2  0
 36 37  1  0
 40 38  2  0
 40 39  1  0
 39 41  1  0
  6 42  1  6
  7 43  1  0
  7 44  1  0
  8 45  1  0
  8 46  1  0
 12 47  1  0
 12 48  1  0
 15 49  1  0
 17 50  1  0
 18 51  1  0
 21 52  1  0
 24 53  1  0
 24 54  1  0
 25 55  1  0
 27 56  1  0
 28 57  1  0
 29 58  1  0
 30 59  1  0
 32 60  1  0
 34 61  1  0
 38 62  1  0
 41 63  1  0
 41 64  1  0
M  CHG  3   5  -1  16   1  19  -1
M  END
>  <EmbedRMS>  (625) 
0.08946967025888704

$$$$

     RDKit          3D

 64 67  0  0  0  0  0  0  0  0999 V2000
   10.2830   43.7754   33.8077 C   0  0  0  0  0  0  0  0  0  0  0  0
   11.4087   43.5914   34.3578 O   0  0  0  0  0  0  0  0  0  0  0  0
    9.3670   42.7317   33.7011 O   0  0  0  0  0  0  0  0  0  0  0  0
    9.8865   41.2344   34.2838 P   0  0  0  0  0  5  0  0  0  0  0  0
   10.3666   41.4694   35.8744 O   0  0  0  0  0  1  0  0  0  0  0  0
    9.9537   45.1115   33.2432 C   0  0  2  0  0  0  0  0  0  0  0  0
   11.0721   46.0271   33.4848 N   0  0  0  0  0  0  0  0  0  0  0  0
    8.6403   45.6441   33.8537 C   0  0  0  0  0  0  0  0  0  0  0  0
    8.2180   46.9274   33.2091 C   0  0  0  0  0  0  0  0  0  0  0  0
    7.6667   46.9012   31.9230 O   0  0  0  0  0  0  0  0  0  0  0  0
    8.3848   48.0200   33.8172 O   0  0  0  0  0  0  0  0  0  0  0  0
    7.2291   48.0744   31.2375 C   0  0  0  0  0  0  0  0  0  0  0  0
    5.9710   48.6474   31.8568 C   0  0  0  0  0  0  0  0  0  0  0  0
    5.6995   50.0418   31.8436 C   0  0  0  0  0  0  0  0  0  0  0  0
    5.0307   47.7744   32.4383 C   0  0  0  0  0  0  0  0  0  0  0  0
    6.5595   50.9766   31.1702 N   0  0  0  0  0  4  0  0  0  0  0  0
    4.5497   50.5243   32.4927 C   0  0  0  0  0  0  0  0  0  0  0  0
    3.8847   48.2722   33.0597 C   0  0  0  0  0  0  0  0  0  0  0  0
    6.6993   52.2551   31.6593 O   0  0  0  0  0  1  0  0  0  0  0  0
    7.0123   50.7138   30.0370 O   0  0  0  0  0  0  0  0  0  0  0  0
    3.6511   49.6452   33.0980 C   0  0  0  0  0  0  0  0  0  0  0  0
    8.8091   40.1914   34.2078 O   0  0  0  0  0  0  0  0  0  0  0  0
   11.2390   40.7909   33.3682 O   0  0  0  0  0  0  0  0  0  0  0  0
   10.9194   40.6896   31.9946 C   0  0  0  0  0  0  0  0  0  0  0  0
   11.5171   39.3801   31.4397 C   0  0  0  0  0  0  0  0  0  0  0  0
   12.7478   39.0861   32.0734 O   0  0  0  0  0  0  0  0  0  0  0  0
   10.6031   38.1891   31.6666 C   0  0  0  0  0  0  0  0  0  0  0  0
   12.9335   37.6796   32.0280 C   0  0  0  0  0  0  0  0  0  0  0  0
    9.6397   38.0777   30.6456 O   0  0  0  0  0  0  0  0  0  0  0  0
   11.5739   37.0154   31.7057 C   0  0  0  0  0  0  0  0  0  0  0  0
   13.4903   37.2178   33.3231 N   0  0  0  0  0  0  0  0  0  0  0  0
   11.6211   36.3376   30.4695 O   0  0  0  0  0  0  0  0  0  0  0  0
   14.4761   36.3273   33.5725 C   0  0  0  0  0  0  0  0  0  0  0  0
   13.1179   37.6316   34.5684 C   0  0  0  0  0  0  0  0  0  0  0  0
   15.2063   35.6139   32.6737 N   0  0  0  0  0  0  0  0  0  0  0  0
   14.6733   36.2277   34.9180 C   0  0  0  0  0  0  0  0  0  0  0  0
   13.8225   37.0459   35.5779 N   0  0  0  0  0  0  0  0  0  0  0  0
   16.1636   34.7594   33.1546 C   0  0  0  0  0  0  0  0  0  0  0  0
   15.6515   35.3494   35.4129 C   0  0  0  0  0  0  0  0  0  0  0  0
   16.3791   34.6311   34.5041 N   0  0  0  0  0  0  0  0  0  0  0  0
   15.9001   35.1935   36.8088 N   0  0  0  0  0  0  0  0  0  0  0  0
    9.8217   44.9846   32.1454 H   0  0  0  0  0  0  0  0  0  0  0  0
   11.0797   46.3203   34.4897 H   0  0  0  0  0  0  0  0  0  0  0  0
   10.9376   46.8881   32.9068 H   0  0  0  0  0  0  0  0  0  0  0  0
    8.7571   45.7905   34.9504 H   0  0  0  0  0  0  0  0  0  0  0  0
    7.8264   44.9026   33.6997 H   0  0  0  0  0  0  0  0  0  0  0  0
    8.0587   48.8128   31.2482 H   0  0  0  0  0  0  0  0  0  0  0  0
    7.0139   47.8093   30.1815 H   0  0  0  0  0  0  0  0  0  0  0  0
    5.1893   46.7033   32.4253 H   0  0  0  0  0  0  0  0  0  0  0  0
    4.3327   51.5849   32.5048 H   0  0  0  0  0  0  0  0  0  0  0  0
    3.1778   47.5911   33.5158 H   0  0  0  0  0  0  0  0  0  0  0  0
    2.7631   50.0288   33.5836 H   0  0  0  0  0  0  0  0  0  0  0  0
    9.8315   40.7396   31.7549 H   0  0  0  0  0  0  0  0  0  0  0  0
   11.4008   41.5437   31.4722 H   0  0  0  0  0  0  0  0  0  0  0  0
   11.6983   39.5042   30.3470 H   0  0  0  0  0  0  0  0  0  0  0  0
   10.1090   38.2632   32.6649 H   0  0  0  0  0  0  0  0  0  0  0  0
   13.6656   37.4541   31.2207 H   0  0  0  0  0  0  0  0  0  0  0  0
    8.8965   38.6900   30.8852 H   0  0  0  0  0  0  0  0  0  0  0  0
   11.2845   36.3060   32.5175 H   0  0  0  0  0  0  0  0  0  0  0  0
   10.8523   35.7095   30.4590 H   0  0  0  0  0  0  0  0  0  0  0  0
   12.3353   38.3588   34.7439 H   0  0  0  0  0  0  0  0  0  0  0  0
   16.7570   34.1788   32.4619 H   0  0  0  0  0  0  0  0  0  0  0  0
   16.6360   34.5317   37.1413 H   0  0  0  0  0  0  0  0  0  0  0  0
   15.3529   35.7359   37.5136 H   0  0  0  0  0  0  0  0  0  0  0  0
  1  2  2  0
  1  3  1  0
  3  4  1  0
  4  5  1  0
  6  1  1  0
  7  6  1  0
  6  8  1  0
  8  9  1  0
  9 10  1  0
  9 11  2  0
 10 12  1  0
 12 13  1  0
 13 14  2  0
 15 13  1  0
 14 16  1  0
 14 17  1  0
 18 15  2  0
 16 19  1  0
 16 20  2  0
 17 21  2  0
 21 18  1  0
  4 22  2  0
  4 23  1  0
 24 23  1  0
 24 25  1  0
 25 26  1  0
 25 27  1  0
 26 28  1  0
 27 29  1  0
 27 30  1  0
 30 28  1  0
 28 31  1  0
 30 32  1  0
 33 31  1  0
 34 31  1  0
 35 33  2  0
 33 36  1  0
 37 34  2  0
 38 35  1  0
 36 39  2  0
 36 37  1  0
 40 38  2  0
 40 39  1  0
 39 41  1  0
  6 42  1  6
  7 43  1  0
  7 44  1  0
  8 45  1  0
  8 46  1  0
 12 47  1  0
 12 48  1  0
 15 49  1  0
 17 50  1  0
 18 51  1  0
 21 52  1  0
 24 53  1  0
 24 54  1  0
 25 55  1  0
 27 56  1  0
 28 57  1  0
 29 58  1  0
 30 59  1  0
 32 60  1  0
 34 61  1  0
 38 62  1  0
 41 63  1  0
 41 64  1  0
M  CHG  3   5  -1  16   1  19  -1
M  END
>  <EmbedRMS>  (626) 
0.089173792191698

$$$$

     RDKit          3D

 64 67  0  0  0  0  0  0  0  0999 V2000
   10.2844   43.7742   33.8068 C   0  0  0  0  0  0  0  0  0  0  0  0
   11.4068   43.5903   34.3635 O   0  0  0  0  0  0  0  0  0  0  0  0
    9.3680   42.7310   33.6987 O   0  0  0  0  0  0  0  0  0  0  0  0
    9.8859   41.2341   34.2835 P   0  0  0  0  0  5  0  0  0  0  0  0
   10.3663   41.4697   35.8740 O   0  0  0  0  0  1  0  0  0  0  0  0
    9.9490   45.1165   33.2550 C   0  0  2  0  0  0  0  0  0  0  0  0
   11.0755   46.0279   33.4731 N   0  0  0  0  0  0  0  0  0  0  0  0
    8.6785   45.6535   33.9434 C   0  0  0  0  0  0  0  0  0  0  0  0
    8.1793   46.9035   33.2873 C   0  0  0  0  0  0  0  0  0  0  0  0
    8.4610   48.1459   33.8669 O   0  0  0  0  0  0  0  0  0  0  0  0
    7.5327   46.8280   32.2067 O   0  0  0  0  0  0  0  0  0  0  0  0
    8.0209   49.3846   33.3102 C   0  0  0  0  0  0  0  0  0  0  0  0
    6.5235   49.5620   33.4545 C   0  0  0  0  0  0  0  0  0  0  0  0
    5.7608   50.2854   32.4987 C   0  0  0  0  0  0  0  0  0  0  0  0
    5.8710   49.0196   34.5790 C   0  0  0  0  0  0  0  0  0  0  0  0
    6.3769   50.9592   31.3881 N   0  0  0  0  0  4  0  0  0  0  0  0
    4.3650   50.3608   32.6479 C   0  0  0  0  0  0  0  0  0  0  0  0
    4.4865   49.1232   34.7189 C   0  0  0  0  0  0  0  0  0  0  0  0
    5.7014   51.0734   30.1949 O   0  0  0  0  0  1  0  0  0  0  0  0
    7.4212   51.6229   31.5535 O   0  0  0  0  0  0  0  0  0  0  0  0
    3.7336   49.7814   33.7489 C   0  0  0  0  0  0  0  0  0  0  0  0
    8.8081   40.1914   34.2081 O   0  0  0  0  0  0  0  0  0  0  0  0
   11.2374   40.7899   33.3677 O   0  0  0  0  0  0  0  0  0  0  0  0
   10.9156   40.6881   31.9947 C   0  0  0  0  0  0  0  0  0  0  0  0
   11.5262   39.3870   31.4363 C   0  0  0  0  0  0  0  0  0  0  0  0
   12.7492   39.0892   32.0818 O   0  0  0  0  0  0  0  0  0  0  0  0
   10.6123   38.1893   31.6461 C   0  0  0  0  0  0  0  0  0  0  0  0
   12.9374   37.6826   32.0301 C   0  0  0  0  0  0  0  0  0  0  0  0
    9.6150   38.0838   30.6538 O   0  0  0  0  0  0  0  0  0  0  0  0
   11.5793   37.0136   31.7014 C   0  0  0  0  0  0  0  0  0  0  0  0
   13.4907   37.2169   33.3242 N   0  0  0  0  0  0  0  0  0  0  0  0
   11.6216   36.3252   30.4725 O   0  0  0  0  0  0  0  0  0  0  0  0
   14.4763   36.3266   33.5731 C   0  0  0  0  0  0  0  0  0  0  0  0
   13.1181   37.6308   34.5694 C   0  0  0  0  0  0  0  0  0  0  0  0
   15.2066   35.6137   32.6740 N   0  0  0  0  0  0  0  0  0  0  0  0
   14.6736   36.2270   34.9185 C   0  0  0  0  0  0  0  0  0  0  0  0
   13.8229   37.0450   35.5787 N   0  0  0  0  0  0  0  0  0  0  0  0
   16.1639   34.7593   33.1547 C   0  0  0  0  0  0  0  0  0  0  0  0
   15.6519   35.3489   35.4132 C   0  0  0  0  0  0  0  0  0  0  0  0
   16.3795   34.6308   34.5042 N   0  0  0  0  0  0  0  0  0  0  0  0
   15.9006   35.1931   36.8090 N   0  0  0  0  0  0  0  0  0  0  0  0
    9.7628   45.0051   32.1625 H   0  0  0  0  0  0  0  0  0  0  0  0
   11.8949   45.6773   32.9242 H   0  0  0  0  0  0  0  0  0  0  0  0
   10.8454   46.9556   33.0495 H   0  0  0  0  0  0  0  0  0  0  0  0
    8.8873   45.8573   35.0166 H   0  0  0  0  0  0  0  0  0  0  0  0
    7.8676   44.8937   33.8968 H   0  0  0  0  0  0  0  0  0  0  0  0
    8.5282   50.2145   33.8448 H   0  0  0  0  0  0  0  0  0  0  0  0
    8.3320   49.4164   32.2446 H   0  0  0  0  0  0  0  0  0  0  0  0
    6.4320   48.5004   35.3461 H   0  0  0  0  0  0  0  0  0  0  0  0
    3.7654   50.8963   31.9227 H   0  0  0  0  0  0  0  0  0  0  0  0
    3.9961   48.6888   35.5806 H   0  0  0  0  0  0  0  0  0  0  0  0
    2.6594   49.8575   33.8583 H   0  0  0  0  0  0  0  0  0  0  0  0
    9.8255   40.7180   31.7578 H   0  0  0  0  0  0  0  0  0  0  0  0
   11.3830   41.5502   31.4724 H   0  0  0  0  0  0  0  0  0  0  0  0
   11.7292   39.5285   30.3502 H   0  0  0  0  0  0  0  0  0  0  0  0
   10.1140   38.2719   32.6379 H   0  0  0  0  0  0  0  0  0  0  0  0
   13.6726   37.4634   31.2240 H   0  0  0  0  0  0  0  0  0  0  0  0
   10.0536   38.1084   29.7638 H   0  0  0  0  0  0  0  0  0  0  0  0
   11.2646   36.3134   32.5107 H   0  0  0  0  0  0  0  0  0  0  0  0
   12.1549   35.5031   30.6315 H   0  0  0  0  0  0  0  0  0  0  0  0
   12.3361   38.3585   34.7450 H   0  0  0  0  0  0  0  0  0  0  0  0
   16.7573   34.1788   32.4619 H   0  0  0  0  0  0  0  0  0  0  0  0
   15.3533   35.7353   37.5139 H   0  0  0  0  0  0  0  0  0  0  0  0
   16.6366   34.5314   37.1415 H   0  0  0  0  0  0  0  0  0  0  0  0
  1  2  2  0
  1  3  1  0
  3  4  1  0
  4  5  1  0
  6  1  1  0
  7  6  1  0
  6  8  1  0
  8  9  1  0
  9 10  1  0
  9 11  2  0
 10 12  1  0
 12 13  1  0
 13 14  2  0
 15 13  1  0
 14 16  1  0
 14 17  1  0
 18 15  2  0
 16 19  1  0
 16 20  2  0
 17 21  2  0
 21 18  1  0
  4 22  2  0
  4 23  1  0
 24 23  1  0
 24 25  1  0
 25 26  1  0
 25 27  1  0
 26 28  1  0
 27 29  1  0
 27 30  1  0
 30 28  1  0
 28 31  1  0
 30 32  1  0
 33 31  1  0
 34 31  1  0
 35 33  2  0
 33 36  1  0
 37 34  2  0
 38 35  1  0
 36 39  2  0
 36 37  1  0
 40 38  2  0
 40 39  1  0
 39 41  1  0
  6 42  1  6
  7 43  1  0
  7 44  1  0
  8 45  1  0
  8 46  1  0
 12 47  1  0
 12 48  1  0
 15 49  1  0
 17 50  1  0
 18 51  1  0
 21 52  1  0
 24 53  1  0
 24 54  1  0
 25 55  1  0
 27 56  1  0
 28 57  1  0
 29 58  1  0
 30 59  1  0
 32 60  1  0
 34 61  1  0
 38 62  1  0
 41 63  1  0
 41 64  1  0
M  CHG  3   5  -1  16   1  19  -1
M  END
>  <EmbedRMS>  (627) 
0.08801014730029139

$$$$

     RDKit          3D

 64 67  0  0  0  0  0  0  0  0999 V2000
   10.2843   43.7742   33.8073 C   0  0  0  0  0  0  0  0  0  0  0  0
   11.4068   43.5903   34.3640 O   0  0  0  0  0  0  0  0  0  0  0  0
    9.3676   42.7312   33.6995 O   0  0  0  0  0  0  0  0  0  0  0  0
    9.8858   41.2343   34.2835 P   0  0  0  0  0  5  0  0  0  0  0  0
   10.3666   41.4694   35.8740 O   0  0  0  0  0  1  0  0  0  0  0  0
    9.9502   45.1153   33.2533 C   0  0  2  0  0  0  0  0  0  0  0  0
   11.0749   46.0288   33.4734 N   0  0  0  0  0  0  0  0  0  0  0  0
    8.6750   45.6520   33.9341 C   0  0  0  0  0  0  0  0  0  0  0  0
    8.2017   46.9146   33.2843 C   0  0  0  0  0  0  0  0  0  0  0  0
    7.7120   46.8675   31.9750 O   0  0  0  0  0  0  0  0  0  0  0  0
    8.2752   48.0080   33.9082 O   0  0  0  0  0  0  0  0  0  0  0  0
    7.5012   48.0266   31.1725 C   0  0  0  0  0  0  0  0  0  0  0  0
    8.8247   48.6104   30.7381 C   0  0  0  0  0  0  0  0  0  0  0  0
    9.5764   48.0668   29.6616 C   0  0  0  0  0  0  0  0  0  0  0  0
    9.3244   49.7295   31.4289 C   0  0  0  0  0  0  0  0  0  0  0  0
    9.1266   46.9164   28.9218 N   0  0  0  0  0  4  0  0  0  0  0  0
   10.7881   48.6818   29.2953 C   0  0  0  0  0  0  0  0  0  0  0  0
   10.5358   50.3138   31.0583 C   0  0  0  0  0  0  0  0  0  0  0  0
    8.5442   45.8493   29.5645 O   0  0  0  0  0  1  0  0  0  0  0  0
    9.4107   46.8024   27.7114 O   0  0  0  0  0  0  0  0  0  0  0  0
   11.2645   49.7932   29.9914 C   0  0  0  0  0  0  0  0  0  0  0  0
    8.8081   40.1915   34.2081 O   0  0  0  0  0  0  0  0  0  0  0  0
   11.2372   40.7911   33.3668 O   0  0  0  0  0  0  0  0  0  0  0  0
   10.9138   40.6861   31.9943 C   0  0  0  0  0  0  0  0  0  0  0  0
   11.5170   39.3797   31.4408 C   0  0  0  0  0  0  0  0  0  0  0  0
   12.7488   39.0886   32.0762 O   0  0  0  0  0  0  0  0  0  0  0  0
   10.6051   38.1877   31.6659 C   0  0  0  0  0  0  0  0  0  0  0  0
   12.9412   37.6828   32.0278 C   0  0  0  0  0  0  0  0  0  0  0  0
    9.6358   38.0931   30.6502 O   0  0  0  0  0  0  0  0  0  0  0  0
   11.5827   37.0179   31.6936 C   0  0  0  0  0  0  0  0  0  0  0  0
   13.4909   37.2176   33.3239 N   0  0  0  0  0  0  0  0  0  0  0  0
   11.6140   36.3180   30.4675 O   0  0  0  0  0  0  0  0  0  0  0  0
   14.4763   36.3270   33.5733 C   0  0  0  0  0  0  0  0  0  0  0  0
   13.1179   37.6316   34.5688 C   0  0  0  0  0  0  0  0  0  0  0  0
   15.2067   35.6140   32.6743 N   0  0  0  0  0  0  0  0  0  0  0  0
   14.6731   36.2272   34.9186 C   0  0  0  0  0  0  0  0  0  0  0  0
   13.8223   37.0456   35.5785 N   0  0  0  0  0  0  0  0  0  0  0  0
   16.1639   34.7595   33.1550 C   0  0  0  0  0  0  0  0  0  0  0  0
   15.6515   35.3491   35.4134 C   0  0  0  0  0  0  0  0  0  0  0  0
   16.3793   34.6310   34.5045 N   0  0  0  0  0  0  0  0  0  0  0  0
   15.9002   35.1933   36.8092 N   0  0  0  0  0  0  0  0  0  0  0  0
    9.7700   45.0015   32.1601 H   0  0  0  0  0  0  0  0  0  0  0  0
   11.8970   45.6772   32.9291 H   0  0  0  0  0  0  0  0  0  0  0  0
   10.8464   46.9547   33.0444 H   0  0  0  0  0  0  0  0  0  0  0  0
    7.8569   44.9037   33.8531 H   0  0  0  0  0  0  0  0  0  0  0  0
    8.8689   45.8292   35.0155 H   0  0  0  0  0  0  0  0  0  0  0  0
    6.8929   48.7699   31.7335 H   0  0  0  0  0  0  0  0  0  0  0  0
    6.9050   47.7467   30.2790 H   0  0  0  0  0  0  0  0  0  0  0  0
    8.7707   50.1584   32.2548 H   0  0  0  0  0  0  0  0  0  0  0  0
   11.3760   48.2878   28.4759 H   0  0  0  0  0  0  0  0  0  0  0  0
   10.9078   51.1756   31.5973 H   0  0  0  0  0  0  0  0  0  0  0  0
   12.2026   50.2502   29.7038 H   0  0  0  0  0  0  0  0  0  0  0  0
   11.3857   41.5434   31.4682 H   0  0  0  0  0  0  0  0  0  0  0  0
    9.8236   40.7212   31.7578 H   0  0  0  0  0  0  0  0  0  0  0  0
   11.6995   39.5064   30.3486 H   0  0  0  0  0  0  0  0  0  0  0  0
   10.1121   38.2724   32.6631 H   0  0  0  0  0  0  0  0  0  0  0  0
   13.6816   37.4632   31.2269 H   0  0  0  0  0  0  0  0  0  0  0  0
    9.0036   37.3829   30.9349 H   0  0  0  0  0  0  0  0  0  0  0  0
   11.2846   36.3041   32.4928 H   0  0  0  0  0  0  0  0  0  0  0  0
   11.8849   36.9590   29.7588 H   0  0  0  0  0  0  0  0  0  0  0  0
   12.3363   38.3598   34.7441 H   0  0  0  0  0  0  0  0  0  0  0  0
   16.7574   34.1791   32.4623 H   0  0  0  0  0  0  0  0  0  0  0  0
   15.3529   35.7355   37.5141 H   0  0  0  0  0  0  0  0  0  0  0  0
   16.6363   34.5317   37.1418 H   0  0  0  0  0  0  0  0  0  0  0  0
  1  2  2  0
  1  3  1  0
  3  4  1  0
  4  5  1  0
  6  1  1  0
  7  6  1  0
  6  8  1  0
  8  9  1  0
  9 10  1  0
  9 11  2  0
 10 12  1  0
 12 13  1  0
 13 14  2  0
 15 13  1  0
 14 16  1  0
 14 17  1  0
 18 15  2  0
 16 19  1  0
 16 20  2  0
 17 21  2  0
 21 18  1  0
  4 22  2  0
  4 23  1  0
 24 23  1  0
 24 25  1  0
 25 26  1  0
 25 27  1  0
 26 28  1  0
 27 29  1  0
 27 30  1  0
 30 28  1  0
 28 31  1  0
 30 32  1  0
 33 31  1  0
 34 31  1  0
 35 33  2  0
 33 36  1  0
 37 34  2  0
 38 35  1  0
 36 39  2  0
 36 37  1  0
 40 38  2  0
 40 39  1  0
 39 41  1  0
  6 42  1  6
  7 43  1  0
  7 44  1  0
  8 45  1  0
  8 46  1  0
 12 47  1  0
 12 48  1  0
 15 49  1  0
 17 50  1  0
 18 51  1  0
 21 52  1  0
 24 53  1  0
 24 54  1  0
 25 55  1  0
 27 56  1  0
 28 57  1  0
 29 58  1  0
 30 59  1  0
 32 60  1  0
 34 61  1  0
 38 62  1  0
 41 63  1  0
 41 64  1  0
M  CHG  3   5  -1  16   1  19  -1
M  END
>  <EmbedRMS>  (628) 
0.08789733832381125

$$$$

     RDKit          3D

 64 67  0  0  0  0  0  0  0  0999 V2000
   10.2821   43.7751   33.8090 C   0  0  0  0  0  0  0  0  0  0  0  0
   11.4050   43.5916   34.3650 O   0  0  0  0  0  0  0  0  0  0  0  0
    9.3699   42.7289   33.6966 O   0  0  0  0  0  0  0  0  0  0  0  0
    9.8871   41.2332   34.2826 P   0  0  0  0  0  5  0  0  0  0  0  0
   10.3669   41.4697   35.8732 O   0  0  0  0  0  1  0  0  0  0  0  0
    9.9473   45.1206   33.2568 C   0  0  2  0  0  0  0  0  0  0  0  0
   11.0782   46.0254   33.4701 N   0  0  0  0  0  0  0  0  0  0  0  0
    8.6900   45.6994   33.9390 C   0  0  0  0  0  0  0  0  0  0  0  0
    7.4529   44.9283   33.5909 C   0  0  0  0  0  0  0  0  0  0  0  0
    7.0195   44.8846   32.2608 O   0  0  0  0  0  0  0  0  0  0  0  0
    6.8190   44.3183   34.4952 O   0  0  0  0  0  0  0  0  0  0  0  0
    5.8736   44.1460   31.8380 C   0  0  0  0  0  0  0  0  0  0  0  0
    4.5891   44.7815   32.3267 C   0  0  0  0  0  0  0  0  0  0  0  0
    3.4513   44.0022   32.6628 C   0  0  0  0  0  0  0  0  0  0  0  0
    4.5117   46.1841   32.4297 C   0  0  0  0  0  0  0  0  0  0  0  0
    3.4299   42.5776   32.4707 N   0  0  0  0  0  4  0  0  0  0  0  0
    2.3078   44.6405   33.1759 C   0  0  0  0  0  0  0  0  0  0  0  0
    3.3608   46.8000   32.9230 C   0  0  0  0  0  0  0  0  0  0  0  0
    3.9154   42.0286   31.3062 O   0  0  0  0  0  1  0  0  0  0  0  0
    2.7926   41.8492   33.2593 O   0  0  0  0  0  0  0  0  0  0  0  0
    2.2656   46.0291   33.3071 C   0  0  0  0  0  0  0  0  0  0  0  0
    8.8085   40.1913   34.2076 O   0  0  0  0  0  0  0  0  0  0  0  0
   11.2382   40.7894   33.3658 O   0  0  0  0  0  0  0  0  0  0  0  0
   10.9149   40.6848   31.9930 C   0  0  0  0  0  0  0  0  0  0  0  0
   11.5168   39.3772   31.4390 C   0  0  0  0  0  0  0  0  0  0  0  0
   12.7474   39.0852   32.0735 O   0  0  0  0  0  0  0  0  0  0  0  0
   10.6047   38.1868   31.6669 C   0  0  0  0  0  0  0  0  0  0  0  0
   12.9346   37.6789   32.0281 C   0  0  0  0  0  0  0  0  0  0  0  0
    9.6378   38.0918   30.6489 O   0  0  0  0  0  0  0  0  0  0  0  0
   11.5760   37.0128   31.7056 C   0  0  0  0  0  0  0  0  0  0  0  0
   13.4909   37.2176   33.3233 N   0  0  0  0  0  0  0  0  0  0  0  0
   11.6233   36.3370   30.4684 O   0  0  0  0  0  0  0  0  0  0  0  0
   14.4765   36.3271   33.5727 C   0  0  0  0  0  0  0  0  0  0  0  0
   13.1181   37.6315   34.5685 C   0  0  0  0  0  0  0  0  0  0  0  0
   15.2066   35.6137   32.6739 N   0  0  0  0  0  0  0  0  0  0  0  0
   14.6736   36.2276   34.9182 C   0  0  0  0  0  0  0  0  0  0  0  0
   13.8227   37.0457   35.5781 N   0  0  0  0  0  0  0  0  0  0  0  0
   16.1638   34.7592   33.1548 C   0  0  0  0  0  0  0  0  0  0  0  0
   15.6517   35.3493   35.4131 C   0  0  0  0  0  0  0  0  0  0  0  0
   16.3793   34.6309   34.5043 N   0  0  0  0  0  0  0  0  0  0  0  0
   15.9002   35.1934   36.8090 N   0  0  0  0  0  0  0  0  0  0  0  0
    9.7633   45.0208   32.1628 H   0  0  0  0  0  0  0  0  0  0  0  0
   10.8345   46.9622   33.0732 H   0  0  0  0  0  0  0  0  0  0  0  0
   11.8857   45.6860   32.8969 H   0  0  0  0  0  0  0  0  0  0  0  0
    8.5346   46.7477   33.6050 H   0  0  0  0  0  0  0  0  0  0  0  0
    8.8327   45.7182   35.0426 H   0  0  0  0  0  0  0  0  0  0  0  0
    5.8561   44.1211   30.7286 H   0  0  0  0  0  0  0  0  0  0  0  0
    5.9775   43.1037   32.2072 H   0  0  0  0  0  0  0  0  0  0  0  0
    5.3504   46.8056   32.1416 H   0  0  0  0  0  0  0  0  0  0  0  0
    1.4344   44.0618   33.4489 H   0  0  0  0  0  0  0  0  0  0  0  0
    3.3199   47.8781   33.0109 H   0  0  0  0  0  0  0  0  0  0  0  0
    1.3752   46.5092   33.6922 H   0  0  0  0  0  0  0  0  0  0  0  0
   11.3881   41.5414   31.4670 H   0  0  0  0  0  0  0  0  0  0  0  0
    9.8249   40.7215   31.7563 H   0  0  0  0  0  0  0  0  0  0  0  0
   11.6987   39.5011   30.3464 H   0  0  0  0  0  0  0  0  0  0  0  0
   10.1097   38.2773   32.6628 H   0  0  0  0  0  0  0  0  0  0  0  0
   13.6672   37.4541   31.2212 H   0  0  0  0  0  0  0  0  0  0  0  0
    8.9776   37.4162   30.9537 H   0  0  0  0  0  0  0  0  0  0  0  0
   11.2859   36.3041   32.5177 H   0  0  0  0  0  0  0  0  0  0  0  0
   10.8687   35.6919   30.4657 H   0  0  0  0  0  0  0  0  0  0  0  0
   12.3355   38.3586   34.7439 H   0  0  0  0  0  0  0  0  0  0  0  0
   16.7572   34.1786   32.4621 H   0  0  0  0  0  0  0  0  0  0  0  0
   16.6361   34.5315   37.1415 H   0  0  0  0  0  0  0  0  0  0  0  0
   15.3530   35.7358   37.5138 H   0  0  0  0  0  0  0  0  0  0  0  0
  1  2  2  0
  1  3  1  0
  3  4  1  0
  4  5  1  0
  6  1  1  0
  7  6  1  0
  6  8  1  0
  8  9  1  0
  9 10  1  0
  9 11  2  0
 10 12  1  0
 12 13  1  0
 13 14  2  0
 15 13  1  0
 14 16  1  0
 14 17  1  0
 18 15  2  0
 16 19  1  0
 16 20  2  0
 17 21  2  0
 21 18  1  0
  4 22  2  0
  4 23  1  0
 24 23  1  0
 24 25  1  0
 25 26  1  0
 25 27  1  0
 26 28  1  0
 27 29  1  0
 27 30  1  0
 30 28  1  0
 28 31  1  0
 30 32  1  0
 33 31  1  0
 34 31  1  0
 35 33  2  0
 33 36  1  0
 37 34  2  0
 38 35  1  0
 36 39  2  0
 36 37  1  0
 40 38  2  0
 40 39  1  0
 39 41  1  0
  6 42  1  6
  7 43  1  0
  7 44  1  0
  8 45  1  0
  8 46  1  0
 12 47  1  0
 12 48  1  0
 15 49  1  0
 17 50  1  0
 18 51  1  0
 21 52  1  0
 24 53  1  0
 24 54  1  0
 25 55  1  0
 27 56  1  0
 28 57  1  0
 29 58  1  0
 30 59  1  0
 32 60  1  0
 34 61  1  0
 38 62  1  0
 41 63  1  0
 41 64  1  0
M  CHG  3   5  -1  16   1  19  -1
M  END
>  <EmbedRMS>  (629) 
0.089333722360144

$$$$

     RDKit          3D

 64 67  0  0  0  0  0  0  0  0999 V2000
   10.2843   43.7743   33.8069 C   0  0  0  0  0  0  0  0  0  0  0  0
   11.4068   43.5903   34.3636 O   0  0  0  0  0  0  0  0  0  0  0  0
    9.3678   42.7312   33.6990 O   0  0  0  0  0  0  0  0  0  0  0  0
    9.8856   41.2344   34.2841 P   0  0  0  0  0  5  0  0  0  0  0  0
   10.3659   41.4699   35.8746 O   0  0  0  0  0  1  0  0  0  0  0  0
    9.9493   45.1164   33.2545 C   0  0  2  0  0  0  0  0  0  0  0  0
   11.0754   46.0281   33.4734 N   0  0  0  0  0  0  0  0  0  0  0  0
    8.6779   45.6535   33.9412 C   0  0  0  0  0  0  0  0  0  0  0  0
    8.1787   46.9029   33.2838 C   0  0  0  0  0  0  0  0  0  0  0  0
    8.4670   48.1450   33.8599 O   0  0  0  0  0  0  0  0  0  0  0  0
    7.5360   46.8255   32.2016 O   0  0  0  0  0  0  0  0  0  0  0  0
    8.0028   49.3864   33.3329 C   0  0  0  0  0  0  0  0  0  0  0  0
    6.5280   49.5647   33.6070 C   0  0  0  0  0  0  0  0  0  0  0  0
    6.0345   49.9707   34.8778 C   0  0  0  0  0  0  0  0  0  0  0  0
    5.6183   49.3367   32.5581 C   0  0  0  0  0  0  0  0  0  0  0  0
    6.9060   50.2146   35.9980 N   0  0  0  0  0  4  0  0  0  0  0  0
    4.6509   50.1630   35.0430 C   0  0  0  0  0  0  0  0  0  0  0  0
    4.2485   49.5186   32.7498 C   0  0  0  0  0  0  0  0  0  0  0  0
    6.5437   51.1259   36.9633 O   0  0  0  0  0  1  0  0  0  0  0  0
    7.9068   49.4972   36.1992 O   0  0  0  0  0  0  0  0  0  0  0  0
    3.7661   49.9345   33.9886 C   0  0  0  0  0  0  0  0  0  0  0  0
    8.8081   40.1914   34.2083 O   0  0  0  0  0  0  0  0  0  0  0  0
   11.2373   40.7904   33.3686 O   0  0  0  0  0  0  0  0  0  0  0  0
   10.9157   40.6897   31.9957 C   0  0  0  0  0  0  0  0  0  0  0  0
   11.5271   39.3897   31.4372 C   0  0  0  0  0  0  0  0  0  0  0  0
   12.7508   39.0915   32.0838 O   0  0  0  0  0  0  0  0  0  0  0  0
   10.6122   38.1916   31.6451 C   0  0  0  0  0  0  0  0  0  0  0  0
   12.9429   37.6852   32.0295 C   0  0  0  0  0  0  0  0  0  0  0  0
    9.6070   38.0858   30.6603 O   0  0  0  0  0  0  0  0  0  0  0  0
   11.5845   37.0185   31.6879 C   0  0  0  0  0  0  0  0  0  0  0  0
   13.4899   37.2163   33.3250 N   0  0  0  0  0  0  0  0  0  0  0  0
   11.6201   36.3062   30.4693 O   0  0  0  0  0  0  0  0  0  0  0  0
   14.4759   36.3263   33.5738 C   0  0  0  0  0  0  0  0  0  0  0  0
   13.1176   37.6307   34.5699 C   0  0  0  0  0  0  0  0  0  0  0  0
   15.2065   35.6139   32.6746 N   0  0  0  0  0  0  0  0  0  0  0  0
   14.6731   36.2267   34.9191 C   0  0  0  0  0  0  0  0  0  0  0  0
   13.8224   37.0450   35.5792 N   0  0  0  0  0  0  0  0  0  0  0  0
   16.1640   34.7596   33.1551 C   0  0  0  0  0  0  0  0  0  0  0  0
   15.6518   35.3489   35.4136 C   0  0  0  0  0  0  0  0  0  0  0  0
   16.3795   34.6310   34.5046 N   0  0  0  0  0  0  0  0  0  0  0  0
   15.9006   35.1931   36.8094 N   0  0  0  0  0  0  0  0  0  0  0  0
    9.7642   45.0046   32.1618 H   0  0  0  0  0  0  0  0  0  0  0  0
   11.8955   45.6773   32.9255 H   0  0  0  0  0  0  0  0  0  0  0  0
   10.8457   46.9555   33.0491 H   0  0  0  0  0  0  0  0  0  0  0  0
    7.8673   44.8933   33.8943 H   0  0  0  0  0  0  0  0  0  0  0  0
    8.8855   45.8581   35.0145 H   0  0  0  0  0  0  0  0  0  0  0  0
    8.5712   50.2155   33.8040 H   0  0  0  0  0  0  0  0  0  0  0  0
    8.2242   49.4395   32.2440 H   0  0  0  0  0  0  0  0  0  0  0  0
    5.9704   49.0263   31.5821 H   0  0  0  0  0  0  0  0  0  0  0  0
    4.2518   50.4762   35.9994 H   0  0  0  0  0  0  0  0  0  0  0  0
    3.5600   49.3420   31.9335 H   0  0  0  0  0  0  0  0  0  0  0  0
    2.7032   50.0785   34.1336 H   0  0  0  0  0  0  0  0  0  0  0  0
   11.3827   41.5525   31.4742 H   0  0  0  0  0  0  0  0  0  0  0  0
    9.8256   40.7190   31.7585 H   0  0  0  0  0  0  0  0  0  0  0  0
   11.7320   39.5336   30.3518 H   0  0  0  0  0  0  0  0  0  0  0  0
   10.1215   38.2683   32.6412 H   0  0  0  0  0  0  0  0  0  0  0  0
   13.6882   37.4706   31.2319 H   0  0  0  0  0  0  0  0  0  0  0  0
   10.0256   38.1750   29.7656 H   0  0  0  0  0  0  0  0  0  0  0  0
   11.2795   36.3123   32.4915 H   0  0  0  0  0  0  0  0  0  0  0  0
   11.9872   36.9099   29.7714 H   0  0  0  0  0  0  0  0  0  0  0  0
   12.3365   38.3595   34.7453 H   0  0  0  0  0  0  0  0  0  0  0  0
   16.7577   34.1794   32.4622 H   0  0  0  0  0  0  0  0  0  0  0  0
   16.6368   34.5316   37.1418 H   0  0  0  0  0  0  0  0  0  0  0  0
   15.3532   35.7351   37.5143 H   0  0  0  0  0  0  0  0  0  0  0  0
  1  2  2  0
  1  3  1  0
  3  4  1  0
  4  5  1  0
  6  1  1  0
  7  6  1  0
  6  8  1  0
  8  9  1  0
  9 10  1  0
  9 11  2  0
 10 12  1  0
 12 13  1  0
 13 14  2  0
 15 13  1  0
 14 16  1  0
 14 17  1  0
 18 15  2  0
 16 19  1  0
 16 20  2  0
 17 21  2  0
 21 18  1  0
  4 22  2  0
  4 23  1  0
 24 23  1  0
 24 25  1  0
 25 26  1  0
 25 27  1  0
 26 28  1  0
 27 29  1  0
 27 30  1  0
 30 28  1  0
 28 31  1  0
 30 32  1  0
 33 31  1  0
 34 31  1  0
 35 33  2  0
 33 36  1  0
 37 34  2  0
 38 35  1  0
 36 39  2  0
 36 37  1  0
 40 38  2  0
 40 39  1  0
 39 41  1  0
  6 42  1  6
  7 43  1  0
  7 44  1  0
  8 45  1  0
  8 46  1  0
 12 47  1  0
 12 48  1  0
 15 49  1  0
 17 50  1  0
 18 51  1  0
 21 52  1  0
 24 53  1  0
 24 54  1  0
 25 55  1  0
 27 56  1  0
 28 57  1  0
 29 58  1  0
 30 59  1  0
 32 60  1  0
 34 61  1  0
 38 62  1  0
 41 63  1  0
 41 64  1  0
M  CHG  3   5  -1  16   1  19  -1
M  END
>  <EmbedRMS>  (630) 
0.08707375689074642

$$$$

     RDKit          3D

 64 67  0  0  0  0  0  0  0  0999 V2000
   10.2809   43.7760   33.8099 C   0  0  0  0  0  0  0  0  0  0  0  0
   11.4069   43.5917   34.3593 O   0  0  0  0  0  0  0  0  0  0  0  0
    9.3684   42.7299   33.6998 O   0  0  0  0  0  0  0  0  0  0  0  0
    9.8866   41.2338   34.2842 P   0  0  0  0  0  5  0  0  0  0  0  0
   10.3669   41.4696   35.8746 O   0  0  0  0  0  1  0  0  0  0  0  0
    9.9523   45.1159   33.2452 C   0  0  2  0  0  0  0  0  0  0  0  0
   11.0744   46.0261   33.4811 N   0  0  0  0  0  0  0  0  0  0  0  0
    8.6540   45.6909   33.8541 C   0  0  0  0  0  0  0  0  0  0  0  0
    7.4420   44.9245   33.4190 C   0  0  0  0  0  0  0  0  0  0  0  0
    7.0795   44.9180   32.0671 O   0  0  0  0  0  0  0  0  0  0  0  0
    6.7660   44.2841   34.2701 O   0  0  0  0  0  0  0  0  0  0  0  0
    5.9623   44.1864   31.5630 C   0  0  0  0  0  0  0  0  0  0  0  0
    4.6484   44.7992   32.0015 C   0  0  0  0  0  0  0  0  0  0  0  0
    3.4933   44.0053   32.2335 C   0  0  0  0  0  0  0  0  0  0  0  0
    4.5599   46.1961   32.1599 C   0  0  0  0  0  0  0  0  0  0  0  0
    3.4823   42.5896   31.9840 N   0  0  0  0  0  4  0  0  0  0  0  0
    2.3205   44.6200   32.7054 C   0  0  0  0  0  0  0  0  0  0  0  0
    3.3795   46.7891   32.6097 C   0  0  0  0  0  0  0  0  0  0  0  0
    2.7039   41.7625   32.7607 O   0  0  0  0  0  1  0  0  0  0  0  0
    3.9991   42.1281   30.9456 O   0  0  0  0  0  0  0  0  0  0  0  0
    2.2661   46.0014   32.8941 C   0  0  0  0  0  0  0  0  0  0  0  0
    8.8086   40.1914   34.2085 O   0  0  0  0  0  0  0  0  0  0  0  0
   11.2378   40.7900   33.3677 O   0  0  0  0  0  0  0  0  0  0  0  0
   10.9153   40.6882   31.9949 C   0  0  0  0  0  0  0  0  0  0  0  0
   11.5260   39.3871   31.4364 C   0  0  0  0  0  0  0  0  0  0  0  0
   12.7491   39.0893   32.0818 O   0  0  0  0  0  0  0  0  0  0  0  0
   10.6122   38.1893   31.6461 C   0  0  0  0  0  0  0  0  0  0  0  0
   12.9373   37.6827   32.0300 C   0  0  0  0  0  0  0  0  0  0  0  0
    9.6149   38.0839   30.6538 O   0  0  0  0  0  0  0  0  0  0  0  0
   11.5792   37.0137   31.7013 C   0  0  0  0  0  0  0  0  0  0  0  0
   13.4906   37.2170   33.3242 N   0  0  0  0  0  0  0  0  0  0  0  0
   11.6216   36.3252   30.4725 O   0  0  0  0  0  0  0  0  0  0  0  0
   14.4763   36.3266   33.5731 C   0  0  0  0  0  0  0  0  0  0  0  0
   13.1181   37.6308   34.5694 C   0  0  0  0  0  0  0  0  0  0  0  0
   15.2065   35.6137   32.6740 N   0  0  0  0  0  0  0  0  0  0  0  0
   14.6735   36.2270   34.9185 C   0  0  0  0  0  0  0  0  0  0  0  0
   13.8228   37.0451   35.5787 N   0  0  0  0  0  0  0  0  0  0  0  0
   16.1639   34.7593   33.1547 C   0  0  0  0  0  0  0  0  0  0  0  0
   15.6518   35.3489   35.4132 C   0  0  0  0  0  0  0  0  0  0  0  0
   16.3794   34.6308   34.5042 N   0  0  0  0  0  0  0  0  0  0  0  0
   15.9005   35.1931   36.8090 N   0  0  0  0  0  0  0  0  0  0  0  0
    9.8233   44.9995   32.1460 H   0  0  0  0  0  0  0  0  0  0  0  0
   10.9073   46.9085   32.9445 H   0  0  0  0  0  0  0  0  0  0  0  0
   11.1118   46.2829   34.4954 H   0  0  0  0  0  0  0  0  0  0  0  0
    8.7240   45.6963   34.9646 H   0  0  0  0  0  0  0  0  0  0  0  0
    8.5252   46.7434   33.5217 H   0  0  0  0  0  0  0  0  0  0  0  0
    6.0542   43.1343   31.9065 H   0  0  0  0  0  0  0  0  0  0  0  0
    6.0034   44.1942   30.4540 H   0  0  0  0  0  0  0  0  0  0  0  0
    5.4116   46.8308   31.9494 H   0  0  0  0  0  0  0  0  0  0  0  0
    1.4341   44.0298   32.9007 H   0  0  0  0  0  0  0  0  0  0  0  0
    3.3298   47.8623   32.7415 H   0  0  0  0  0  0  0  0  0  0  0  0
    1.3529   46.4636   33.2461 H   0  0  0  0  0  0  0  0  0  0  0  0
   11.3822   41.5504   31.4723 H   0  0  0  0  0  0  0  0  0  0  0  0
    9.8250   40.7180   31.7585 H   0  0  0  0  0  0  0  0  0  0  0  0
   11.7290   39.5287   30.3502 H   0  0  0  0  0  0  0  0  0  0  0  0
   10.1139   38.2719   32.6379 H   0  0  0  0  0  0  0  0  0  0  0  0
   13.6725   37.4636   31.2240 H   0  0  0  0  0  0  0  0  0  0  0  0
   10.0534   38.1085   29.7638 H   0  0  0  0  0  0  0  0  0  0  0  0
   11.2645   36.3135   32.5107 H   0  0  0  0  0  0  0  0  0  0  0  0
   12.1548   35.5032   30.6315 H   0  0  0  0  0  0  0  0  0  0  0  0
   12.3361   38.3586   34.7450 H   0  0  0  0  0  0  0  0  0  0  0  0
   16.7573   34.1788   32.4619 H   0  0  0  0  0  0  0  0  0  0  0  0
   15.3532   35.7353   37.5139 H   0  0  0  0  0  0  0  0  0  0  0  0
   16.6365   34.5314   37.1415 H   0  0  0  0  0  0  0  0  0  0  0  0
  1  2  2  0
  1  3  1  0
  3  4  1  0
  4  5  1  0
  6  1  1  0
  7  6  1  0
  6  8  1  0
  8  9  1  0
  9 10  1  0
  9 11  2  0
 10 12  1  0
 12 13  1  0
 13 14  2  0
 15 13  1  0
 14 16  1  0
 14 17  1  0
 18 15  2  0
 16 19  1  0
 16 20  2  0
 17 21  2  0
 21 18  1  0
  4 22  2  0
  4 23  1  0
 24 23  1  0
 24 25  1  0
 25 26  1  0
 25 27  1  0
 26 28  1  0
 27 29  1  0
 27 30  1  0
 30 28  1  0
 28 31  1  0
 30 32  1  0
 33 31  1  0
 34 31  1  0
 35 33  2  0
 33 36  1  0
 37 34  2  0
 38 35  1  0
 36 39  2  0
 36 37  1  0
 40 38  2  0
 40 39  1  0
 39 41  1  0
  6 42  1  6
  7 43  1  0
  7 44  1  0
  8 45  1  0
  8 46  1  0
 12 47  1  0
 12 48  1  0
 15 49  1  0
 17 50  1  0
 18 51  1  0
 21 52  1  0
 24 53  1  0
 24 54  1  0
 25 55  1  0
 27 56  1  0
 28 57  1  0
 29 58  1  0
 30 59  1  0
 32 60  1  0
 34 61  1  0
 38 62  1  0
 41 63  1  0
 41 64  1  0
M  CHG  3   5  -1  16   1  19  -1
M  END
>  <EmbedRMS>  (631) 
0.0878838156506144

$$$$

     RDKit          3D

 64 67  0  0  0  0  0  0  0  0999 V2000
   10.2863   43.7710   33.8099 C   0  0  0  0  0  0  0  0  0  0  0  0
   11.4100   43.5818   34.3617 O   0  0  0  0  0  0  0  0  0  0  0  0
    9.3669   42.7308   33.7020 O   0  0  0  0  0  0  0  0  0  0  0  0
    9.8847   41.2330   34.2845 P   0  0  0  0  0  5  0  0  0  0  0  0
   10.3648   41.4677   35.8752 O   0  0  0  0  0  1  0  0  0  0  0  0
    9.9607   45.1125   33.2473 C   0  0  2  0  0  0  0  0  0  0  0  0
   11.0655   46.0480   33.4747 N   0  0  0  0  0  0  0  0  0  0  0  0
    8.6650   45.6568   33.8716 C   0  0  0  0  0  0  0  0  0  0  0  0
    8.2765   46.9642   33.2545 C   0  0  0  0  0  0  0  0  0  0  0  0
    8.7253   48.1564   33.8331 O   0  0  0  0  0  0  0  0  0  0  0  0
    7.5895   46.9769   32.1971 O   0  0  0  0  0  0  0  0  0  0  0  0
    8.3757   49.4507   33.3464 C   0  0  0  0  0  0  0  0  0  0  0  0
    6.9436   49.7824   33.6940 C   0  0  0  0  0  0  0  0  0  0  0  0
    6.5573   50.2160   34.9925 C   0  0  0  0  0  0  0  0  0  0  0  0
    5.9662   49.6731   32.6878 C   0  0  0  0  0  0  0  0  0  0  0  0
    7.5017   50.3432   36.0722 N   0  0  0  0  0  4  0  0  0  0  0  0
    5.2122   50.5537   35.2273 C   0  0  0  0  0  0  0  0  0  0  0  0
    4.6349   49.9985   32.9482 C   0  0  0  0  0  0  0  0  0  0  0  0
    7.2866   51.2705   37.0659 O   0  0  0  0  0  1  0  0  0  0  0  0
    8.4264   49.5178   36.2151 O   0  0  0  0  0  0  0  0  0  0  0  0
    4.2593   50.4415   34.2142 C   0  0  0  0  0  0  0  0  0  0  0  0
    8.8073   40.1902   34.2076 O   0  0  0  0  0  0  0  0  0  0  0  0
   11.2377   40.7903   33.3696 O   0  0  0  0  0  0  0  0  0  0  0  0
   10.9187   40.6904   31.9961 C   0  0  0  0  0  0  0  0  0  0  0  0
   11.5174   39.3824   31.4411 C   0  0  0  0  0  0  0  0  0  0  0  0
   12.7494   39.0893   32.0756 O   0  0  0  0  0  0  0  0  0  0  0  0
   10.6036   38.1899   31.6659 C   0  0  0  0  0  0  0  0  0  0  0  0
   12.9401   37.6834   32.0276 C   0  0  0  0  0  0  0  0  0  0  0  0
    9.6376   38.0785   30.6474 O   0  0  0  0  0  0  0  0  0  0  0  0
   11.5804   37.0203   31.6936 C   0  0  0  0  0  0  0  0  0  0  0  0
   13.4902   37.2177   33.3237 N   0  0  0  0  0  0  0  0  0  0  0  0
   11.6118   36.3193   30.4680 O   0  0  0  0  0  0  0  0  0  0  0  0
   14.4759   36.3271   33.5731 C   0  0  0  0  0  0  0  0  0  0  0  0
   13.1176   37.6317   34.5688 C   0  0  0  0  0  0  0  0  0  0  0  0
   15.2064   35.6141   32.6742 N   0  0  0  0  0  0  0  0  0  0  0  0
   14.6729   36.2274   34.9184 C   0  0  0  0  0  0  0  0  0  0  0  0
   13.8221   37.0457   35.5783 N   0  0  0  0  0  0  0  0  0  0  0  0
   16.1637   34.7597   33.1549 C   0  0  0  0  0  0  0  0  0  0  0  0
   15.6514   35.3493   35.4133 C   0  0  0  0  0  0  0  0  0  0  0  0
   16.3791   34.6312   34.5044 N   0  0  0  0  0  0  0  0  0  0  0  0
   15.9001   35.1935   36.8091 N   0  0  0  0  0  0  0  0  0  0  0  0
    9.8096   44.9954   32.1511 H   0  0  0  0  0  0  0  0  0  0  0  0
   11.2747   46.1191   34.4982 H   0  0  0  0  0  0  0  0  0  0  0  0
   11.9221   45.7017   32.9832 H   0  0  0  0  0  0  0  0  0  0  0  0
    7.8359   44.9310   33.7197 H   0  0  0  0  0  0  0  0  0  0  0  0
    8.7977   45.7942   34.9672 H   0  0  0  0  0  0  0  0  0  0  0  0
    9.0525   50.2040   33.8008 H   0  0  0  0  0  0  0  0  0  0  0  0
    8.5504   49.5003   32.2489 H   0  0  0  0  0  0  0  0  0  0  0  0
    6.2363   49.3441   31.6919 H   0  0  0  0  0  0  0  0  0  0  0  0
    4.8948   50.8906   36.2060 H   0  0  0  0  0  0  0  0  0  0  0  0
    3.8938   49.9123   32.1640 H   0  0  0  0  0  0  0  0  0  0  0  0
    3.2264   50.6970   34.4126 H   0  0  0  0  0  0  0  0  0  0  0  0
    9.8308   40.7397   31.7558 H   0  0  0  0  0  0  0  0  0  0  0  0
   11.3998   41.5454   31.4747 H   0  0  0  0  0  0  0  0  0  0  0  0
   11.6989   39.5091   30.3489 H   0  0  0  0  0  0  0  0  0  0  0  0
   10.1130   38.2588   32.6663 H   0  0  0  0  0  0  0  0  0  0  0  0
   13.6800   37.4628   31.2265 H   0  0  0  0  0  0  0  0  0  0  0  0
    8.8952   38.6907   30.8891 H   0  0  0  0  0  0  0  0  0  0  0  0
   11.2831   36.3060   32.4929 H   0  0  0  0  0  0  0  0  0  0  0  0
   11.8860   36.9589   29.7593 H   0  0  0  0  0  0  0  0  0  0  0  0
   12.3360   38.3600   34.7441 H   0  0  0  0  0  0  0  0  0  0  0  0
   16.7572   34.1793   32.4621 H   0  0  0  0  0  0  0  0  0  0  0  0
   15.3528   35.7356   37.5140 H   0  0  0  0  0  0  0  0  0  0  0  0
   16.6362   34.5318   37.1416 H   0  0  0  0  0  0  0  0  0  0  0  0
  1  2  2  0
  1  3  1  0
  3  4  1  0
  4  5  1  0
  6  1  1  0
  7  6  1  0
  6  8  1  0
  8  9  1  0
  9 10  1  0
  9 11  2  0
 10 12  1  0
 12 13  1  0
 13 14  2  0
 15 13  1  0
 14 16  1  0
 14 17  1  0
 18 15  2  0
 16 19  1  0
 16 20  2  0
 17 21  2  0
 21 18  1  0
  4 22  2  0
  4 23  1  0
 24 23  1  0
 24 25  1  0
 25 26  1  0
 25 27  1  0
 26 28  1  0
 27 29  1  0
 27 30  1  0
 30 28  1  0
 28 31  1  0
 30 32  1  0
 33 31  1  0
 34 31  1  0
 35 33  2  0
 33 36  1  0
 37 34  2  0
 38 35  1  0
 36 39  2  0
 36 37  1  0
 40 38  2  0
 40 39  1  0
 39 41  1  0
  6 42  1  6
  7 43  1  0
  7 44  1  0
  8 45  1  0
  8 46  1  0
 12 47  1  0
 12 48  1  0
 15 49  1  0
 17 50  1  0
 18 51  1  0
 21 52  1  0
 24 53  1  0
 24 54  1  0
 25 55  1  0
 27 56  1  0
 28 57  1  0
 29 58  1  0
 30 59  1  0
 32 60  1  0
 34 61  1  0
 38 62  1  0
 41 63  1  0
 41 64  1  0
M  CHG  3   5  -1  16   1  19  -1
M  END
>  <EmbedRMS>  (632) 
0.0888403274121218

$$$$

     RDKit          3D

 64 67  0  0  0  0  0  0  0  0999 V2000
   10.2829   43.7755   33.8076 C   0  0  0  0  0  0  0  0  0  0  0  0
   11.4086   43.5915   34.3577 O   0  0  0  0  0  0  0  0  0  0  0  0
    9.3667   42.7319   33.7015 O   0  0  0  0  0  0  0  0  0  0  0  0
    9.8861   41.2347   34.2846 P   0  0  0  0  0  5  0  0  0  0  0  0
   10.3662   41.4697   35.8751 O   0  0  0  0  0  1  0  0  0  0  0  0
    9.9535   45.1117   33.2433 C   0  0  2  0  0  0  0  0  0  0  0  0
   11.0725   46.0268   33.4849 N   0  0  0  0  0  0  0  0  0  0  0  0
    8.6400   45.6438   33.8543 C   0  0  0  0  0  0  0  0  0  0  0  0
    8.2244   46.9356   33.2227 C   0  0  0  0  0  0  0  0  0  0  0  0
    8.5577   48.1435   33.8451 O   0  0  0  0  0  0  0  0  0  0  0  0
    7.6099   46.9252   32.1212 O   0  0  0  0  0  0  0  0  0  0  0  0
    8.1862   49.4189   33.3258 C   0  0  0  0  0  0  0  0  0  0  0  0
    6.6928   49.6289   33.4301 C   0  0  0  0  0  0  0  0  0  0  0  0
    5.9872   49.4571   34.6516 C   0  0  0  0  0  0  0  0  0  0  0  0
    5.9783   49.9684   32.2663 C   0  0  0  0  0  0  0  0  0  0  0  0
    6.6626   49.1300   35.8799 N   0  0  0  0  0  4  0  0  0  0  0  0
    4.5869   49.5964   34.6584 C   0  0  0  0  0  0  0  0  0  0  0  0
    4.5914   50.1170   32.2993 C   0  0  0  0  0  0  0  0  0  0  0  0
    7.8652   49.7166   36.1981 O   0  0  0  0  0  1  0  0  0  0  0  0
    6.0890   48.4335   36.7428 O   0  0  0  0  0  0  0  0  0  0  0  0
    3.8965   49.9265   33.4916 C   0  0  0  0  0  0  0  0  0  0  0  0
    8.8089   40.1914   34.2082 O   0  0  0  0  0  0  0  0  0  0  0  0
   11.2386   40.7916   33.3693 O   0  0  0  0  0  0  0  0  0  0  0  0
   10.9187   40.6906   31.9960 C   0  0  0  0  0  0  0  0  0  0  0  0
   11.5175   39.3824   31.4412 C   0  0  0  0  0  0  0  0  0  0  0  0
   12.7494   39.0893   32.0756 O   0  0  0  0  0  0  0  0  0  0  0  0
   10.6036   38.1899   31.6660 C   0  0  0  0  0  0  0  0  0  0  0  0
   12.9401   37.6834   32.0276 C   0  0  0  0  0  0  0  0  0  0  0  0
    9.6376   38.0785   30.6474 O   0  0  0  0  0  0  0  0  0  0  0  0
   11.5803   37.0204   31.6937 C   0  0  0  0  0  0  0  0  0  0  0  0
   13.4902   37.2177   33.3237 N   0  0  0  0  0  0  0  0  0  0  0  0
   11.6118   36.3193   30.4680 O   0  0  0  0  0  0  0  0  0  0  0  0
   14.4759   36.3271   33.5731 C   0  0  0  0  0  0  0  0  0  0  0  0
   13.1176   37.6317   34.5688 C   0  0  0  0  0  0  0  0  0  0  0  0
   15.2064   35.6141   32.6742 N   0  0  0  0  0  0  0  0  0  0  0  0
   14.6729   36.2274   34.9184 C   0  0  0  0  0  0  0  0  0  0  0  0
   13.8221   37.0457   35.5783 N   0  0  0  0  0  0  0  0  0  0  0  0
   16.1637   34.7596   33.1549 C   0  0  0  0  0  0  0  0  0  0  0  0
   15.6514   35.3493   35.4133 C   0  0  0  0  0  0  0  0  0  0  0  0
   16.3791   34.6312   34.5044 N   0  0  0  0  0  0  0  0  0  0  0  0
   15.9001   35.1935   36.8091 N   0  0  0  0  0  0  0  0  0  0  0  0
    9.8207   44.9853   32.1456 H   0  0  0  0  0  0  0  0  0  0  0  0
   10.9427   46.8848   32.9013 H   0  0  0  0  0  0  0  0  0  0  0  0
   11.0767   46.3254   34.4882 H   0  0  0  0  0  0  0  0  0  0  0  0
    8.7579   45.7908   34.9503 H   0  0  0  0  0  0  0  0  0  0  0  0
    7.8251   44.9024   33.7025 H   0  0  0  0  0  0  0  0  0  0  0  0
    8.7092   50.2140   33.8952 H   0  0  0  0  0  0  0  0  0  0  0  0
    8.5401   49.5001   32.2744 H   0  0  0  0  0  0  0  0  0  0  0  0
    6.4940   50.1074   31.3241 H   0  0  0  0  0  0  0  0  0  0  0  0
    4.0283   49.4647   35.5765 H   0  0  0  0  0  0  0  0  0  0  0  0
    4.0535   50.3742   31.3959 H   0  0  0  0  0  0  0  0  0  0  0  0
    2.8202   50.0383   33.5135 H   0  0  0  0  0  0  0  0  0  0  0  0
   11.3992   41.5454   31.4737 H   0  0  0  0  0  0  0  0  0  0  0  0
    9.8307   40.7395   31.7563 H   0  0  0  0  0  0  0  0  0  0  0  0
   11.6989   39.5090   30.3489 H   0  0  0  0  0  0  0  0  0  0  0  0
   10.1130   38.2589   32.6664 H   0  0  0  0  0  0  0  0  0  0  0  0
   13.6800   37.4628   31.2265 H   0  0  0  0  0  0  0  0  0  0  0  0
    8.8952   38.6908   30.8892 H   0  0  0  0  0  0  0  0  0  0  0  0
   11.2830   36.3060   32.4929 H   0  0  0  0  0  0  0  0  0  0  0  0
   11.8860   36.9589   29.7593 H   0  0  0  0  0  0  0  0  0  0  0  0
   12.3360   38.3600   34.7442 H   0  0  0  0  0  0  0  0  0  0  0  0
   16.7571   34.1792   32.4621 H   0  0  0  0  0  0  0  0  0  0  0  0
   16.6362   34.5318   37.1416 H   0  0  0  0  0  0  0  0  0  0  0  0
   15.3528   35.7356   37.5140 H   0  0  0  0  0  0  0  0  0  0  0  0
  1  2  2  0
  1  3  1  0
  3  4  1  0
  4  5  1  0
  6  1  1  0
  7  6  1  0
  6  8  1  0
  8  9  1  0
  9 10  1  0
  9 11  2  0
 10 12  1  0
 12 13  1  0
 13 14  2  0
 15 13  1  0
 14 16  1  0
 14 17  1  0
 18 15  2  0
 16 19  1  0
 16 20  2  0
 17 21  2  0
 21 18  1  0
  4 22  2  0
  4 23  1  0
 24 23  1  0
 24 25  1  0
 25 26  1  0
 25 27  1  0
 26 28  1  0
 27 29  1  0
 27 30  1  0
 30 28  1  0
 28 31  1  0
 30 32  1  0
 33 31  1  0
 34 31  1  0
 35 33  2  0
 33 36  1  0
 37 34  2  0
 38 35  1  0
 36 39  2  0
 36 37  1  0
 40 38  2  0
 40 39  1  0
 39 41  1  0
  6 42  1  6
  7 43  1  0
  7 44  1  0
  8 45  1  0
  8 46  1  0
 12 47  1  0
 12 48  1  0
 15 49  1  0
 17 50  1  0
 18 51  1  0
 21 52  1  0
 24 53  1  0
 24 54  1  0
 25 55  1  0
 27 56  1  0
 28 57  1  0
 29 58  1  0
 30 59  1  0
 32 60  1  0
 34 61  1  0
 38 62  1  0
 41 63  1  0
 41 64  1  0
M  CHG  3   5  -1  16   1  19  -1
M  END
>  <EmbedRMS>  (633) 
0.08803336950809276

$$$$

     RDKit          3D

 64 67  0  0  0  0  0  0  0  0999 V2000
   10.2870   43.7697   33.8118 C   0  0  0  0  0  0  0  0  0  0  0  0
   11.4130   43.5782   34.3566 O   0  0  0  0  0  0  0  0  0  0  0  0
    9.3661   42.7311   33.7051 O   0  0  0  0  0  0  0  0  0  0  0  0
    9.8839   41.2326   34.2851 P   0  0  0  0  0  5  0  0  0  0  0  0
   10.3638   41.4653   35.8757 O   0  0  0  0  0  1  0  0  0  0  0  0
    9.9677   45.1090   33.2413 C   0  0  2  0  0  0  0  0  0  0  0  0
   11.0595   46.0570   33.4786 N   0  0  0  0  0  0  0  0  0  0  0  0
    8.6315   45.6645   33.7726 C   0  0  0  0  0  0  0  0  0  0  0  0
    8.6647   46.0319   35.2295 C   0  0  0  0  0  0  0  0  0  0  0  0
    9.0473   45.0825   36.1857 O   0  0  0  0  0  0  0  0  0  0  0  0
    8.3090   47.1891   35.5836 O   0  0  0  0  0  0  0  0  0  0  0  0
    9.0016   45.3295   37.5905 C   0  0  0  0  0  0  0  0  0  0  0  0
   10.0314   46.3611   37.9959 C   0  0  0  0  0  0  0  0  0  0  0  0
   11.4225   46.1845   37.7608 C   0  0  0  0  0  0  0  0  0  0  0  0
    9.5812   47.5632   38.5739 C   0  0  0  0  0  0  0  0  0  0  0  0
   11.9535   44.9729   37.1928 N   0  0  0  0  0  4  0  0  0  0  0  0
   12.3085   47.2291   38.0859 C   0  0  0  0  0  0  0  0  0  0  0  0
   10.4797   48.5786   38.9019 C   0  0  0  0  0  0  0  0  0  0  0  0
   11.4507   43.7470   37.5590 O   0  0  0  0  0  1  0  0  0  0  0  0
   13.0006   45.0088   36.5136 O   0  0  0  0  0  0  0  0  0  0  0  0
   11.8400   48.4138   38.6540 C   0  0  0  0  0  0  0  0  0  0  0  0
    8.8066   40.1900   34.2072 O   0  0  0  0  0  0  0  0  0  0  0  0
   11.2372   40.7907   33.3700 O   0  0  0  0  0  0  0  0  0  0  0  0
   10.9183   40.6906   31.9964 C   0  0  0  0  0  0  0  0  0  0  0  0
   11.5173   39.3825   31.4414 C   0  0  0  0  0  0  0  0  0  0  0  0
   12.7493   39.0894   32.0758 O   0  0  0  0  0  0  0  0  0  0  0  0
   10.6035   38.1900   31.6660 C   0  0  0  0  0  0  0  0  0  0  0  0
   12.9400   37.6835   32.0277 C   0  0  0  0  0  0  0  0  0  0  0  0
    9.6376   38.0785   30.6474 O   0  0  0  0  0  0  0  0  0  0  0  0
   11.5803   37.0204   31.6937 C   0  0  0  0  0  0  0  0  0  0  0  0
   13.4902   37.2178   33.3237 N   0  0  0  0  0  0  0  0  0  0  0  0
   11.6118   36.3194   30.4680 O   0  0  0  0  0  0  0  0  0  0  0  0
   14.4758   36.3272   33.5731 C   0  0  0  0  0  0  0  0  0  0  0  0
   13.1176   37.6318   34.5688 C   0  0  0  0  0  0  0  0  0  0  0  0
   15.2064   35.6142   32.6742 N   0  0  0  0  0  0  0  0  0  0  0  0
   14.6729   36.2274   34.9184 C   0  0  0  0  0  0  0  0  0  0  0  0
   13.8221   37.0458   35.5784 N   0  0  0  0  0  0  0  0  0  0  0  0
   16.1636   34.7597   33.1549 C   0  0  0  0  0  0  0  0  0  0  0  0
   15.6514   35.3493   35.4133 C   0  0  0  0  0  0  0  0  0  0  0  0
   16.3791   34.6312   34.5044 N   0  0  0  0  0  0  0  0  0  0  0  0
   15.9001   35.1935   36.8091 N   0  0  0  0  0  0  0  0  0  0  0  0
    9.8567   44.9769   32.1424 H   0  0  0  0  0  0  0  0  0  0  0  0
   11.2796   46.1150   34.4998 H   0  0  0  0  0  0  0  0  0  0  0  0
   11.9182   45.7259   32.9804 H   0  0  0  0  0  0  0  0  0  0  0  0
    8.3658   46.5648   33.1758 H   0  0  0  0  0  0  0  0  0  0  0  0
    7.8212   44.9214   33.6111 H   0  0  0  0  0  0  0  0  0  0  0  0
    9.1787   44.3836   38.1395 H   0  0  0  0  0  0  0  0  0  0  0  0
    7.9731   45.6504   37.8665 H   0  0  0  0  0  0  0  0  0  0  0  0
    8.5265   47.7242   38.7601 H   0  0  0  0  0  0  0  0  0  0  0  0
   13.3718   47.1192   37.9137 H   0  0  0  0  0  0  0  0  0  0  0  0
   10.1185   49.4990   39.3423 H   0  0  0  0  0  0  0  0  0  0  0  0
   12.5347   49.2048   38.9055 H   0  0  0  0  0  0  0  0  0  0  0  0
    9.8305   40.7399   31.7561 H   0  0  0  0  0  0  0  0  0  0  0  0
   11.3993   41.5457   31.4750 H   0  0  0  0  0  0  0  0  0  0  0  0
   11.6987   39.5094   30.3491 H   0  0  0  0  0  0  0  0  0  0  0  0
   10.1129   38.2588   32.6664 H   0  0  0  0  0  0  0  0  0  0  0  0
   13.6800   37.4630   31.2266 H   0  0  0  0  0  0  0  0  0  0  0  0
    8.8952   38.6908   30.8891 H   0  0  0  0  0  0  0  0  0  0  0  0
   11.2831   36.3061   32.4929 H   0  0  0  0  0  0  0  0  0  0  0  0
   11.8859   36.9590   29.7593 H   0  0  0  0  0  0  0  0  0  0  0  0
   12.3361   38.3601   34.7442 H   0  0  0  0  0  0  0  0  0  0  0  0
   16.7572   34.1793   32.4621 H   0  0  0  0  0  0  0  0  0  0  0  0
   16.6362   34.5318   37.1416 H   0  0  0  0  0  0  0  0  0  0  0  0
   15.3528   35.7357   37.5140 H   0  0  0  0  0  0  0  0  0  0  0  0
  1  2  2  0
  1  3  1  0
  3  4  1  0
  4  5  1  0
  6  1  1  0
  7  6  1  0
  6  8  1  0
  8  9  1  0
  9 10  1  0
  9 11  2  0
 10 12  1  0
 12 13  1  0
 13 14  2  0
 15 13  1  0
 14 16  1  0
 14 17  1  0
 18 15  2  0
 16 19  1  0
 16 20  2  0
 17 21  2  0
 21 18  1  0
  4 22  2  0
  4 23  1  0
 24 23  1  0
 24 25  1  0
 25 26  1  0
 25 27  1  0
 26 28  1  0
 27 29  1  0
 27 30  1  0
 30 28  1  0
 28 31  1  0
 30 32  1  0
 33 31  1  0
 34 31  1  0
 35 33  2  0
 33 36  1  0
 37 34  2  0
 38 35  1  0
 36 39  2  0
 36 37  1  0
 40 38  2  0
 40 39  1  0
 39 41  1  0
  6 42  1  6
  7 43  1  0
  7 44  1  0
  8 45  1  0
  8 46  1  0
 12 47  1  0
 12 48  1  0
 15 49  1  0
 17 50  1  0
 18 51  1  0
 21 52  1  0
 24 53  1  0
 24 54  1  0
 25 55  1  0
 27 56  1  0
 28 57  1  0
 29 58  1  0
 30 59  1  0
 32 60  1  0
 34 61  1  0
 38 62  1  0
 41 63  1  0
 41 64  1  0
M  CHG  3   5  -1  16   1  19  -1
M  END
>  <EmbedRMS>  (634) 
0.08915122090957209

$$$$

     RDKit          3D

 64 67  0  0  0  0  0  0  0  0999 V2000
   10.2882   43.7702   33.7983 C   0  0  0  0  0  0  0  0  0  0  0  0
   11.4093   43.5873   34.3579 O   0  0  0  0  0  0  0  0  0  0  0  0
    9.3680   42.7301   33.6973 O   0  0  0  0  0  0  0  0  0  0  0  0
    9.8855   41.2340   34.2846 P   0  0  0  0  0  5  0  0  0  0  0  0
   10.3682   41.4705   35.8742 O   0  0  0  0  0  1  0  0  0  0  0  0
    9.9560   45.1143   33.2462 C   0  0  2  0  0  0  0  0  0  0  0  0
   11.0666   46.0367   33.4891 N   0  0  0  0  0  0  0  0  0  0  0  0
    8.6497   45.6610   33.8595 C   0  0  0  0  0  0  0  0  0  0  0  0
    8.7165   45.7505   35.3550 C   0  0  0  0  0  0  0  0  0  0  0  0
    8.4887   44.5993   36.1126 O   0  0  0  0  0  0  0  0  0  0  0  0
    9.0182   46.8415   35.9112 O   0  0  0  0  0  0  0  0  0  0  0  0
    8.6045   44.5623   37.5314 C   0  0  0  0  0  0  0  0  0  0  0  0
    8.3909   43.1555   38.0426 C   0  0  0  0  0  0  0  0  0  0  0  0
    9.0284   42.6879   39.2220 C   0  0  0  0  0  0  0  0  0  0  0  0
    7.5345   42.2853   37.3382 C   0  0  0  0  0  0  0  0  0  0  0  0
    9.8272   43.5577   40.0430 N   0  0  0  0  0  4  0  0  0  0  0  0
    8.8630   41.3448   39.6065 C   0  0  0  0  0  0  0  0  0  0  0  0
    7.3710   40.9610   37.7460 C   0  0  0  0  0  0  0  0  0  0  0  0
    9.4061   44.8398   40.3115 O   0  0  0  0  0  1  0  0  0  0  0  0
   10.8060   43.1027   40.6704 O   0  0  0  0  0  0  0  0  0  0  0  0
    8.0436   40.4883   38.8706 C   0  0  0  0  0  0  0  0  0  0  0  0
    8.8075   40.1916   34.2106 O   0  0  0  0  0  0  0  0  0  0  0  0
   11.2377   40.7886   33.3694 O   0  0  0  0  0  0  0  0  0  0  0  0
   10.9191   40.6891   31.9955 C   0  0  0  0  0  0  0  0  0  0  0  0
   11.5169   39.3801   31.4398 C   0  0  0  0  0  0  0  0  0  0  0  0
   12.7478   39.0861   32.0733 O   0  0  0  0  0  0  0  0  0  0  0  0
   10.6030   38.1890   31.6667 C   0  0  0  0  0  0  0  0  0  0  0  0
   12.9335   37.6797   32.0280 C   0  0  0  0  0  0  0  0  0  0  0  0
    9.6396   38.0776   30.6457 O   0  0  0  0  0  0  0  0  0  0  0  0
   11.5739   37.0154   31.7057 C   0  0  0  0  0  0  0  0  0  0  0  0
   13.4902   37.2178   33.3231 N   0  0  0  0  0  0  0  0  0  0  0  0
   11.6211   36.3376   30.4695 O   0  0  0  0  0  0  0  0  0  0  0  0
   14.4761   36.3274   33.5725 C   0  0  0  0  0  0  0  0  0  0  0  0
   13.1178   37.6317   34.5684 C   0  0  0  0  0  0  0  0  0  0  0  0
   15.2063   35.6139   32.6737 N   0  0  0  0  0  0  0  0  0  0  0  0
   14.6733   36.2278   34.9180 C   0  0  0  0  0  0  0  0  0  0  0  0
   13.8225   37.0459   35.5780 N   0  0  0  0  0  0  0  0  0  0  0  0
   16.1636   34.7595   33.1546 C   0  0  0  0  0  0  0  0  0  0  0  0
   15.6515   35.3494   35.4129 C   0  0  0  0  0  0  0  0  0  0  0  0
   16.3790   34.6311   34.5041 N   0  0  0  0  0  0  0  0  0  0  0  0
   15.9001   35.1936   36.8088 N   0  0  0  0  0  0  0  0  0  0  0  0
    9.8054   45.0078   32.1483 H   0  0  0  0  0  0  0  0  0  0  0  0
   10.8086   46.9748   33.1047 H   0  0  0  0  0  0  0  0  0  0  0  0
   11.8887   45.7204   32.9236 H   0  0  0  0  0  0  0  0  0  0  0  0
    8.4272   46.6640   33.4345 H   0  0  0  0  0  0  0  0  0  0  0  0
    7.8033   44.9971   33.5788 H   0  0  0  0  0  0  0  0  0  0  0  0
    7.8466   45.2358   37.9855 H   0  0  0  0  0  0  0  0  0  0  0  0
    9.6226   44.9159   37.8012 H   0  0  0  0  0  0  0  0  0  0  0  0
    7.0042   42.6228   36.4565 H   0  0  0  0  0  0  0  0  0  0  0  0
    9.3512   40.9659   40.4955 H   0  0  0  0  0  0  0  0  0  0  0  0
    6.7251   40.2984   37.1846 H   0  0  0  0  0  0  0  0  0  0  0  0
    7.9177   39.4595   39.1826 H   0  0  0  0  0  0  0  0  0  0  0  0
    9.8312   40.7393   31.7554 H   0  0  0  0  0  0  0  0  0  0  0  0
   11.4009   41.5438   31.4743 H   0  0  0  0  0  0  0  0  0  0  0  0
   11.6979   39.5046   30.3472 H   0  0  0  0  0  0  0  0  0  0  0  0
   10.1089   38.2630   32.6650 H   0  0  0  0  0  0  0  0  0  0  0  0
   13.6655   37.4541   31.2207 H   0  0  0  0  0  0  0  0  0  0  0  0
    8.8963   38.6896   30.8854 H   0  0  0  0  0  0  0  0  0  0  0  0
   11.2846   36.3060   32.5175 H   0  0  0  0  0  0  0  0  0  0  0  0
   10.8523   35.7094   30.4590 H   0  0  0  0  0  0  0  0  0  0  0  0
   12.3352   38.3588   34.7440 H   0  0  0  0  0  0  0  0  0  0  0  0
   16.7569   34.1788   32.4619 H   0  0  0  0  0  0  0  0  0  0  0  0
   15.3529   35.7359   37.5136 H   0  0  0  0  0  0  0  0  0  0  0  0
   16.6359   34.5317   37.1414 H   0  0  0  0  0  0  0  0  0  0  0  0
  1  2  2  0
  1  3  1  0
  3  4  1  0
  4  5  1  0
  6  1  1  0
  7  6  1  0
  6  8  1  0
  8  9  1  0
  9 10  1  0
  9 11  2  0
 10 12  1  0
 12 13  1  0
 13 14  2  0
 15 13  1  0
 14 16  1  0
 14 17  1  0
 18 15  2  0
 16 19  1  0
 16 20  2  0
 17 21  2  0
 21 18  1  0
  4 22  2  0
  4 23  1  0
 24 23  1  0
 24 25  1  0
 25 26  1  0
 25 27  1  0
 26 28  1  0
 27 29  1  0
 27 30  1  0
 30 28  1  0
 28 31  1  0
 30 32  1  0
 33 31  1  0
 34 31  1  0
 35 33  2  0
 33 36  1  0
 37 34  2  0
 38 35  1  0
 36 39  2  0
 36 37  1  0
 40 38  2  0
 40 39  1  0
 39 41  1  0
  6 42  1  6
  7 43  1  0
  7 44  1  0
  8 45  1  0
  8 46  1  0
 12 47  1  0
 12 48  1  0
 15 49  1  0
 17 50  1  0
 18 51  1  0
 21 52  1  0
 24 53  1  0
 24 54  1  0
 25 55  1  0
 27 56  1  0
 28 57  1  0
 29 58  1  0
 30 59  1  0
 32 60  1  0
 34 61  1  0
 38 62  1  0
 41 63  1  0
 41 64  1  0
M  CHG  3   5  -1  16   1  19  -1
M  END
>  <EmbedRMS>  (635) 
0.0893818003459604

$$$$

     RDKit          3D

 64 67  0  0  0  0  0  0  0  0999 V2000
   10.2808   43.7751   33.8089 C   0  0  0  0  0  0  0  0  0  0  0  0
   11.4045   43.5904   34.3630 O   0  0  0  0  0  0  0  0  0  0  0  0
    9.3688   42.7288   33.6940 O   0  0  0  0  0  0  0  0  0  0  0  0
    9.8862   41.2335   34.2819 P   0  0  0  0  0  5  0  0  0  0  0  0
   10.3658   41.4712   35.8725 O   0  0  0  0  0  1  0  0  0  0  0  0
    9.9395   45.1265   33.2758 C   0  0  2  0  0  0  0  0  0  0  0  0
   11.0855   46.0193   33.4558 N   0  0  0  0  0  0  0  0  0  0  0  0
    8.7195   45.7140   34.0152 C   0  0  0  0  0  0  0  0  0  0  0  0
    7.4563   44.9707   33.7065 C   0  0  0  0  0  0  0  0  0  0  0  0
    6.9018   45.0584   32.4250 O   0  0  0  0  0  0  0  0  0  0  0  0
    6.9080   44.2695   34.6003 O   0  0  0  0  0  0  0  0  0  0  0  0
    5.7277   44.3508   32.0339 C   0  0  0  0  0  0  0  0  0  0  0  0
    6.0372   42.8826   31.8541 C   0  0  0  0  0  0  0  0  0  0  0  0
    5.5485   41.8781   32.7300 C   0  0  0  0  0  0  0  0  0  0  0  0
    6.9126   42.5179   30.8157 C   0  0  0  0  0  0  0  0  0  0  0  0
    4.6278   42.1763   33.7884 N   0  0  0  0  0  4  0  0  0  0  0  0
    5.9677   40.5492   32.5554 C   0  0  0  0  0  0  0  0  0  0  0  0
    7.2966   41.1876   30.6413 C   0  0  0  0  0  0  0  0  0  0  0  0
    4.7951   41.5858   35.0196 O   0  0  0  0  0  1  0  0  0  0  0  0
    3.5405   42.7316   33.5296 O   0  0  0  0  0  0  0  0  0  0  0  0
    6.8301   40.2061   31.5138 C   0  0  0  0  0  0  0  0  0  0  0  0
    8.8091   40.1904   34.2088 O   0  0  0  0  0  0  0  0  0  0  0  0
   11.2386   40.7890   33.3670 O   0  0  0  0  0  0  0  0  0  0  0  0
   10.9172   40.6852   31.9939 C   0  0  0  0  0  0  0  0  0  0  0  0
   11.5174   39.3776   31.4393 C   0  0  0  0  0  0  0  0  0  0  0  0
   12.7478   39.0851   32.0736 O   0  0  0  0  0  0  0  0  0  0  0  0
   10.6046   38.1873   31.6660 C   0  0  0  0  0  0  0  0  0  0  0  0
   12.9345   37.6788   32.0282 C   0  0  0  0  0  0  0  0  0  0  0  0
    9.6396   38.0920   30.6464 O   0  0  0  0  0  0  0  0  0  0  0  0
   11.5758   37.0132   31.7059 C   0  0  0  0  0  0  0  0  0  0  0  0
   13.4908   37.2175   33.3234 N   0  0  0  0  0  0  0  0  0  0  0  0
   11.6233   36.3367   30.4689 O   0  0  0  0  0  0  0  0  0  0  0  0
   14.4764   36.3271   33.5728 C   0  0  0  0  0  0  0  0  0  0  0  0
   13.1181   37.6315   34.5685 C   0  0  0  0  0  0  0  0  0  0  0  0
   15.2066   35.6137   32.6739 N   0  0  0  0  0  0  0  0  0  0  0  0
   14.6735   36.2276   34.9182 C   0  0  0  0  0  0  0  0  0  0  0  0
   13.8227   37.0457   35.5781 N   0  0  0  0  0  0  0  0  0  0  0  0
   16.1638   34.7592   33.1548 C   0  0  0  0  0  0  0  0  0  0  0  0
   15.6517   35.3493   35.4131 C   0  0  0  0  0  0  0  0  0  0  0  0
   16.3792   34.6309   34.5043 N   0  0  0  0  0  0  0  0  0  0  0  0
   15.9002   35.1934   36.8090 N   0  0  0  0  0  0  0  0  0  0  0  0
    9.7108   45.0374   32.1892 H   0  0  0  0  0  0  0  0  0  0  0  0
   10.8403   46.9587   33.0660 H   0  0  0  0  0  0  0  0  0  0  0  0
   11.8719   45.6714   32.8587 H   0  0  0  0  0  0  0  0  0  0  0  0
    8.9048   45.7144   35.1126 H   0  0  0  0  0  0  0  0  0  0  0  0
    8.5695   46.7704   33.7043 H   0  0  0  0  0  0  0  0  0  0  0  0
    4.9228   44.5465   32.7678 H   0  0  0  0  0  0  0  0  0  0  0  0
    5.3776   44.7610   31.0630 H   0  0  0  0  0  0  0  0  0  0  0  0
    7.3070   43.2709   30.1441 H   0  0  0  0  0  0  0  0  0  0  0  0
    5.6073   39.7724   33.2180 H   0  0  0  0  0  0  0  0  0  0  0  0
    7.9700   40.9197   29.8374 H   0  0  0  0  0  0  0  0  0  0  0  0
    7.1356   39.1768   31.3837 H   0  0  0  0  0  0  0  0  0  0  0  0
   11.3898   41.5423   31.4684 H   0  0  0  0  0  0  0  0  0  0  0  0
    9.8294   40.7209   31.7585 H   0  0  0  0  0  0  0  0  0  0  0  0
   11.6993   39.5023   30.3467 H   0  0  0  0  0  0  0  0  0  0  0  0
   10.1068   38.2781   32.6605 H   0  0  0  0  0  0  0  0  0  0  0  0
   13.6670   37.4538   31.2213 H   0  0  0  0  0  0  0  0  0  0  0  0
    8.9892   37.4030   30.9421 H   0  0  0  0  0  0  0  0  0  0  0  0
   11.2852   36.3051   32.5183 H   0  0  0  0  0  0  0  0  0  0  0  0
   10.8710   35.6890   30.4677 H   0  0  0  0  0  0  0  0  0  0  0  0
   12.3354   38.3586   34.7439 H   0  0  0  0  0  0  0  0  0  0  0  0
   16.7572   34.1786   32.4621 H   0  0  0  0  0  0  0  0  0  0  0  0
   16.6361   34.5315   37.1415 H   0  0  0  0  0  0  0  0  0  0  0  0
   15.3530   35.7358   37.5138 H   0  0  0  0  0  0  0  0  0  0  0  0
  1  2  2  0
  1  3  1  0
  3  4  1  0
  4  5  1  0
  6  1  1  0
  7  6  1  0
  6  8  1  0
  8  9  1  0
  9 10  1  0
  9 11  2  0
 10 12  1  0
 12 13  1  0
 13 14  2  0
 15 13  1  0
 14 16  1  0
 14 17  1  0
 18 15  2  0
 16 19  1  0
 16 20  2  0
 17 21  2  0
 21 18  1  0
  4 22  2  0
  4 23  1  0
 24 23  1  0
 24 25  1  0
 25 26  1  0
 25 27  1  0
 26 28  1  0
 27 29  1  0
 27 30  1  0
 30 28  1  0
 28 31  1  0
 30 32  1  0
 33 31  1  0
 34 31  1  0
 35 33  2  0
 33 36  1  0
 37 34  2  0
 38 35  1  0
 36 39  2  0
 36 37  1  0
 40 38  2  0
 40 39  1  0
 39 41  1  0
  6 42  1  6
  7 43  1  0
  7 44  1  0
  8 45  1  0
  8 46  1  0
 12 47  1  0
 12 48  1  0
 15 49  1  0
 17 50  1  0
 18 51  1  0
 21 52  1  0
 24 53  1  0
 24 54  1  0
 25 55  1  0
 27 56  1  0
 28 57  1  0
 29 58  1  0
 30 59  1  0
 32 60  1  0
 34 61  1  0
 38 62  1  0
 41 63  1  0
 41 64  1  0
M  CHG  3   5  -1  16   1  19  -1
M  END
>  <EmbedRMS>  (636) 
0.0897758935693661

$$$$

     RDKit          3D

 64 67  0  0  0  0  0  0  0  0999 V2000
   10.2829   43.7715   33.8093 C   0  0  0  0  0  0  0  0  0  0  0  0
   11.4065   43.5821   34.3619 O   0  0  0  0  0  0  0  0  0  0  0  0
    9.3674   42.7287   33.6982 O   0  0  0  0  0  0  0  0  0  0  0  0
    9.8857   41.2323   34.2831 P   0  0  0  0  0  5  0  0  0  0  0  0
   10.3661   41.4689   35.8736 O   0  0  0  0  0  1  0  0  0  0  0  0
    9.9590   45.1183   33.2484 C   0  0  2  0  0  0  0  0  0  0  0  0
   11.0701   46.0447   33.4757 N   0  0  0  0  0  0  0  0  0  0  0  0
    8.6767   45.7002   33.8744 C   0  0  0  0  0  0  0  0  0  0  0  0
    7.4399   45.0741   33.3053 C   0  0  0  0  0  0  0  0  0  0  0  0
    6.8398   44.0011   33.9691 O   0  0  0  0  0  0  0  0  0  0  0  0
    6.9661   45.5031   32.2177 O   0  0  0  0  0  0  0  0  0  0  0  0
    5.6520   43.3739   33.4981 C   0  0  0  0  0  0  0  0  0  0  0  0
    5.3310   42.1895   34.3713 C   0  0  0  0  0  0  0  0  0  0  0  0
    4.6501   42.3214   35.6122 C   0  0  0  0  0  0  0  0  0  0  0  0
    5.7276   40.9120   33.9370 C   0  0  0  0  0  0  0  0  0  0  0  0
    4.2481   43.6019   36.1331 N   0  0  0  0  0  4  0  0  0  0  0  0
    4.3485   41.1634   36.3515 C   0  0  0  0  0  0  0  0  0  0  0  0
    5.4337   39.7785   34.6953 C   0  0  0  0  0  0  0  0  0  0  0  0
    3.1423   43.6951   36.9468 O   0  0  0  0  0  1  0  0  0  0  0  0
    4.9810   44.6034   36.0026 O   0  0  0  0  0  0  0  0  0  0  0  0
    4.7402   39.9033   35.8971 C   0  0  0  0  0  0  0  0  0  0  0  0
    8.8109   40.1874   34.2088 O   0  0  0  0  0  0  0  0  0  0  0  0
   11.2372   40.7903   33.3658 O   0  0  0  0  0  0  0  0  0  0  0  0
   10.9132   40.6842   31.9933 C   0  0  0  0  0  0  0  0  0  0  0  0
   11.5172   39.3773   31.4395 C   0  0  0  0  0  0  0  0  0  0  0  0
   12.7475   39.0869   32.0756 O   0  0  0  0  0  0  0  0  0  0  0  0
   10.6066   38.1851   31.6659 C   0  0  0  0  0  0  0  0  0  0  0  0
   12.9370   37.6811   32.0290 C   0  0  0  0  0  0  0  0  0  0  0  0
    9.6400   38.0883   30.6478 O   0  0  0  0  0  0  0  0  0  0  0  0
   11.5786   37.0134   31.7046 C   0  0  0  0  0  0  0  0  0  0  0  0
   13.4914   37.2182   33.3239 N   0  0  0  0  0  0  0  0  0  0  0  0
   11.6122   36.3389   30.4674 O   0  0  0  0  0  0  0  0  0  0  0  0
   14.4765   36.3272   33.5730 C   0  0  0  0  0  0  0  0  0  0  0  0
   13.1183   37.6317   34.5690 C   0  0  0  0  0  0  0  0  0  0  0  0
   15.2066   35.6140   32.6740 N   0  0  0  0  0  0  0  0  0  0  0  0
   14.6735   36.2274   34.9184 C   0  0  0  0  0  0  0  0  0  0  0  0
   13.8227   37.0455   35.5785 N   0  0  0  0  0  0  0  0  0  0  0  0
   16.1637   34.7593   33.1548 C   0  0  0  0  0  0  0  0  0  0  0  0
   15.6516   35.3491   35.4132 C   0  0  0  0  0  0  0  0  0  0  0  0
   16.3792   34.6309   34.5043 N   0  0  0  0  0  0  0  0  0  0  0  0
   15.9003   35.1932   36.8090 N   0  0  0  0  0  0  0  0  0  0  0  0
    9.8157   45.0150   32.1496 H   0  0  0  0  0  0  0  0  0  0  0  0
   11.9253   45.6927   32.9855 H   0  0  0  0  0  0  0  0  0  0  0  0
   11.2779   46.1158   34.4995 H   0  0  0  0  0  0  0  0  0  0  0  0
    8.6323   46.7938   33.6757 H   0  0  0  0  0  0  0  0  0  0  0  0
    8.6901   45.5672   34.9785 H   0  0  0  0  0  0  0  0  0  0  0  0
    4.8093   44.0981   33.5008 H   0  0  0  0  0  0  0  0  0  0  0  0
    5.7980   43.0487   32.4442 H   0  0  0  0  0  0  0  0  0  0  0  0
    6.2623   40.7907   33.0026 H   0  0  0  0  0  0  0  0  0  0  0  0
    3.8249   41.2376   37.2961 H   0  0  0  0  0  0  0  0  0  0  0  0
    5.7422   38.8008   34.3480 H   0  0  0  0  0  0  0  0  0  0  0  0
    4.5107   39.0220   36.4822 H   0  0  0  0  0  0  0  0  0  0  0  0
    9.8228   40.7185   31.7576 H   0  0  0  0  0  0  0  0  0  0  0  0
   11.3842   41.5414   31.4665 H   0  0  0  0  0  0  0  0  0  0  0  0
   11.7002   39.5017   30.3471 H   0  0  0  0  0  0  0  0  0  0  0  0
   10.1096   38.2752   32.6608 H   0  0  0  0  0  0  0  0  0  0  0  0
   13.6711   37.4591   31.2227 H   0  0  0  0  0  0  0  0  0  0  0  0
    9.0012   37.3858   30.9368 H   0  0  0  0  0  0  0  0  0  0  0  0
   11.2704   36.3048   32.5089 H   0  0  0  0  0  0  0  0  0  0  0  0
   12.1439   35.5136   30.6141 H   0  0  0  0  0  0  0  0  0  0  0  0
   12.3360   38.3591   34.7445 H   0  0  0  0  0  0  0  0  0  0  0  0
   16.7571   34.1787   32.4620 H   0  0  0  0  0  0  0  0  0  0  0  0
   16.6362   34.5314   37.1415 H   0  0  0  0  0  0  0  0  0  0  0  0
   15.3531   35.7355   37.5139 H   0  0  0  0  0  0  0  0  0  0  0  0
  1  2  2  0
  1  3  1  0
  3  4  1  0
  4  5  1  0
  6  1  1  0
  7  6  1  0
  6  8  1  0
  8  9  1  0
  9 10  1  0
  9 11  2  0
 10 12  1  0
 12 13  1  0
 13 14  2  0
 15 13  1  0
 14 16  1  0
 14 17  1  0
 18 15  2  0
 16 19  1  0
 16 20  2  0
 17 21  2  0
 21 18  1  0
  4 22  2  0
  4 23  1  0
 24 23  1  0
 24 25  1  0
 25 26  1  0
 25 27  1  0
 26 28  1  0
 27 29  1  0
 27 30  1  0
 30 28  1  0
 28 31  1  0
 30 32  1  0
 33 31  1  0
 34 31  1  0
 35 33  2  0
 33 36  1  0
 37 34  2  0
 38 35  1  0
 36 39  2  0
 36 37  1  0
 40 38  2  0
 40 39  1  0
 39 41  1  0
  6 42  1  6
  7 43  1  0
  7 44  1  0
  8 45  1  0
  8 46  1  0
 12 47  1  0
 12 48  1  0
 15 49  1  0
 17 50  1  0
 18 51  1  0
 21 52  1  0
 24 53  1  0
 24 54  1  0
 25 55  1  0
 27 56  1  0
 28 57  1  0
 29 58  1  0
 30 59  1  0
 32 60  1  0
 34 61  1  0
 38 62  1  0
 41 63  1  0
 41 64  1  0
M  CHG  3   5  -1  16   1  19  -1
M  END
>  <EmbedRMS>  (637) 
0.08916827904488044

$$$$

     RDKit          3D

 64 67  0  0  0  0  0  0  0  0999 V2000
   10.2824   43.7752   33.8087 C   0  0  0  0  0  0  0  0  0  0  0  0
   11.4053   43.5918   34.3647 O   0  0  0  0  0  0  0  0  0  0  0  0
    9.3715   42.7283   33.6943 O   0  0  0  0  0  0  0  0  0  0  0  0
    9.8867   41.2333   34.2832 P   0  0  0  0  0  5  0  0  0  0  0  0
   10.3657   41.4708   35.8739 O   0  0  0  0  0  1  0  0  0  0  0  0
    9.9444   45.1226   33.2626 C   0  0  2  0  0  0  0  0  0  0  0  0
   11.0791   46.0246   33.4671 N   0  0  0  0  0  0  0  0  0  0  0  0
    8.6957   45.7026   33.9602 C   0  0  0  0  0  0  0  0  0  0  0  0
    7.4522   44.9407   33.6164 C   0  0  0  0  0  0  0  0  0  0  0  0
    6.9161   44.0430   34.5482 O   0  0  0  0  0  0  0  0  0  0  0  0
    6.9157   45.0949   32.4852 O   0  0  0  0  0  0  0  0  0  0  0  0
    5.7996   43.1962   34.2728 C   0  0  0  0  0  0  0  0  0  0  0  0
    4.4658   43.8452   34.5949 C   0  0  0  0  0  0  0  0  0  0  0  0
    3.2720   43.0701   34.6323 C   0  0  0  0  0  0  0  0  0  0  0  0
    4.3894   45.2233   34.8910 C   0  0  0  0  0  0  0  0  0  0  0  0
    3.2652   41.6607   34.3357 N   0  0  0  0  0  4  0  0  0  0  0  0
    2.0606   43.6880   34.9901 C   0  0  0  0  0  0  0  0  0  0  0  0
    3.1722   45.8164   35.2277 C   0  0  0  0  0  0  0  0  0  0  0  0
    2.3410   40.8378   34.9375 O   0  0  0  0  0  1  0  0  0  0  0  0
    3.9697   41.1968   33.4161 O   0  0  0  0  0  0  0  0  0  0  0  0
    2.0116   45.0504   35.2808 C   0  0  0  0  0  0  0  0  0  0  0  0
    8.8077   40.1919   34.2080 O   0  0  0  0  0  0  0  0  0  0  0  0
   11.2379   40.7879   33.3682 O   0  0  0  0  0  0  0  0  0  0  0  0
   10.9162   40.6878   31.9950 C   0  0  0  0  0  0  0  0  0  0  0  0
   11.5263   39.3869   31.4361 C   0  0  0  0  0  0  0  0  0  0  0  0
   12.7495   39.0890   32.0814 O   0  0  0  0  0  0  0  0  0  0  0  0
   10.6124   38.1893   31.6460 C   0  0  0  0  0  0  0  0  0  0  0  0
   12.9374   37.6824   32.0300 C   0  0  0  0  0  0  0  0  0  0  0  0
    9.6150   38.0839   30.6538 O   0  0  0  0  0  0  0  0  0  0  0  0
   11.5793   37.0135   31.7013 C   0  0  0  0  0  0  0  0  0  0  0  0
   13.4906   37.2169   33.3242 N   0  0  0  0  0  0  0  0  0  0  0  0
   11.6215   36.3251   30.4725 O   0  0  0  0  0  0  0  0  0  0  0  0
   14.4763   36.3266   33.5731 C   0  0  0  0  0  0  0  0  0  0  0  0
   13.1181   37.6308   34.5693 C   0  0  0  0  0  0  0  0  0  0  0  0
   15.2066   35.6136   32.6740 N   0  0  0  0  0  0  0  0  0  0  0  0
   14.6736   36.2270   34.9185 C   0  0  0  0  0  0  0  0  0  0  0  0
   13.8228   37.0451   35.5787 N   0  0  0  0  0  0  0  0  0  0  0  0
   16.1639   34.7593   33.1547 C   0  0  0  0  0  0  0  0  0  0  0  0
   15.6519   35.3489   35.4132 C   0  0  0  0  0  0  0  0  0  0  0  0
   16.3795   34.6308   34.5042 N   0  0  0  0  0  0  0  0  0  0  0  0
   15.9006   35.1931   36.8090 N   0  0  0  0  0  0  0  0  0  0  0  0
    9.7476   45.0263   32.1705 H   0  0  0  0  0  0  0  0  0  0  0  0
   10.8348   46.9620   33.0721 H   0  0  0  0  0  0  0  0  0  0  0  0
   11.8813   45.6832   32.8875 H   0  0  0  0  0  0  0  0  0  0  0  0
    8.5479   46.7589   33.6467 H   0  0  0  0  0  0  0  0  0  0  0  0
    8.8412   45.7012   35.0629 H   0  0  0  0  0  0  0  0  0  0  0  0
    5.9103   42.2881   34.9023 H   0  0  0  0  0  0  0  0  0  0  0  0
    5.8228   42.8772   33.2086 H   0  0  0  0  0  0  0  0  0  0  0  0
    5.2675   45.8526   34.8796 H   0  0  0  0  0  0  0  0  0  0  0  0
    1.1435   43.1138   35.0281 H   0  0  0  0  0  0  0  0  0  0  0  0
    3.1310   46.8740   35.4551 H   0  0  0  0  0  0  0  0  0  0  0  0
    1.0699   45.5135   35.5465 H   0  0  0  0  0  0  0  0  0  0  0  0
    9.8261   40.7181   31.7578 H   0  0  0  0  0  0  0  0  0  0  0  0
   11.3840   41.5501   31.4736 H   0  0  0  0  0  0  0  0  0  0  0  0
   11.7291   39.5286   30.3500 H   0  0  0  0  0  0  0  0  0  0  0  0
   10.1141   38.2720   32.6379 H   0  0  0  0  0  0  0  0  0  0  0  0
   13.6726   37.4630   31.2239 H   0  0  0  0  0  0  0  0  0  0  0  0
   10.0534   38.1084   29.7638 H   0  0  0  0  0  0  0  0  0  0  0  0
   11.2645   36.3134   32.5107 H   0  0  0  0  0  0  0  0  0  0  0  0
   12.1546   35.5030   30.6315 H   0  0  0  0  0  0  0  0  0  0  0  0
   12.3361   38.3585   34.7449 H   0  0  0  0  0  0  0  0  0  0  0  0
   16.7574   34.1788   32.4619 H   0  0  0  0  0  0  0  0  0  0  0  0
   15.3533   35.7353   37.5139 H   0  0  0  0  0  0  0  0  0  0  0  0
   16.6366   34.5314   37.1415 H   0  0  0  0  0  0  0  0  0  0  0  0
  1  2  2  0
  1  3  1  0
  3  4  1  0
  4  5  1  0
  6  1  1  0
  7  6  1  0
  6  8  1  0
  8  9  1  0
  9 10  1  0
  9 11  2  0
 10 12  1  0
 12 13  1  0
 13 14  2  0
 15 13  1  0
 14 16  1  0
 14 17  1  0
 18 15  2  0
 16 19  1  0
 16 20  2  0
 17 21  2  0
 21 18  1  0
  4 22  2  0
  4 23  1  0
 24 23  1  0
 24 25  1  0
 25 26  1  0
 25 27  1  0
 26 28  1  0
 27 29  1  0
 27 30  1  0
 30 28  1  0
 28 31  1  0
 30 32  1  0
 33 31  1  0
 34 31  1  0
 35 33  2  0
 33 36  1  0
 37 34  2  0
 38 35  1  0
 36 39  2  0
 36 37  1  0
 40 38  2  0
 40 39  1  0
 39 41  1  0
  6 42  1  6
  7 43  1  0
  7 44  1  0
  8 45  1  0
  8 46  1  0
 12 47  1  0
 12 48  1  0
 15 49  1  0
 17 50  1  0
 18 51  1  0
 21 52  1  0
 24 53  1  0
 24 54  1  0
 25 55  1  0
 27 56  1  0
 28 57  1  0
 29 58  1  0
 30 59  1  0
 32 60  1  0
 34 61  1  0
 38 62  1  0
 41 63  1  0
 41 64  1  0
M  CHG  3   5  -1  16   1  19  -1
M  END
>  <EmbedRMS>  (638) 
0.08848225064775977

$$$$

     RDKit          3D

 64 67  0  0  0  0  0  0  0  0999 V2000
   10.2861   43.7711   33.8107 C   0  0  0  0  0  0  0  0  0  0  0  0
   11.4099   43.5818   34.3622 O   0  0  0  0  0  0  0  0  0  0  0  0
    9.3665   42.7311   33.7027 O   0  0  0  0  0  0  0  0  0  0  0  0
    9.8845   41.2331   34.2841 P   0  0  0  0  0  5  0  0  0  0  0  0
   10.3659   41.4674   35.8746 O   0  0  0  0  0  1  0  0  0  0  0  0
    9.9619   45.1114   33.2455 C   0  0  2  0  0  0  0  0  0  0  0  0
   11.0649   46.0483   33.4749 N   0  0  0  0  0  0  0  0  0  0  0  0
    8.6632   45.6574   33.8628 C   0  0  0  0  0  0  0  0  0  0  0  0
    8.2787   46.9603   33.2336 C   0  0  0  0  0  0  0  0  0  0  0  0
    7.8498   46.9761   31.9043 O   0  0  0  0  0  0  0  0  0  0  0  0
    8.3746   48.0313   33.8931 O   0  0  0  0  0  0  0  0  0  0  0  0
    7.5495   48.1789   31.2041 C   0  0  0  0  0  0  0  0  0  0  0  0
    7.2437   47.8633   29.7614 C   0  0  0  0  0  0  0  0  0  0  0  0
    8.1339   47.1099   28.9485 C   0  0  0  0  0  0  0  0  0  0  0  0
    6.0235   48.3046   29.2167 C   0  0  0  0  0  0  0  0  0  0  0  0
    9.4062   46.6484   29.4396 N   0  0  0  0  0  4  0  0  0  0  0  0
    7.7555   46.7936   27.6306 C   0  0  0  0  0  0  0  0  0  0  0  0
    5.6759   47.9930   27.9017 C   0  0  0  0  0  0  0  0  0  0  0  0
   10.1894   47.4563   30.2306 O   0  0  0  0  0  1  0  0  0  0  0  0
    9.8841   45.5724   29.0241 O   0  0  0  0  0  0  0  0  0  0  0  0
    6.5376   47.2348   27.1121 C   0  0  0  0  0  0  0  0  0  0  0  0
    8.8068   40.1905   34.2081 O   0  0  0  0  0  0  0  0  0  0  0  0
   11.2362   40.7909   33.3670 O   0  0  0  0  0  0  0  0  0  0  0  0
   10.9132   40.6861   31.9945 C   0  0  0  0  0  0  0  0  0  0  0  0
   11.5168   39.3798   31.4409 C   0  0  0  0  0  0  0  0  0  0  0  0
   12.7486   39.0887   32.0763 O   0  0  0  0  0  0  0  0  0  0  0  0
   10.6051   38.1877   31.6659 C   0  0  0  0  0  0  0  0  0  0  0  0
   12.9411   37.6829   32.0278 C   0  0  0  0  0  0  0  0  0  0  0  0
    9.6358   38.0930   30.6502 O   0  0  0  0  0  0  0  0  0  0  0  0
   11.5827   37.0180   31.6936 C   0  0  0  0  0  0  0  0  0  0  0  0
   13.4909   37.2177   33.3239 N   0  0  0  0  0  0  0  0  0  0  0  0
   11.6141   36.3180   30.4675 O   0  0  0  0  0  0  0  0  0  0  0  0
   14.4762   36.3270   33.5733 C   0  0  0  0  0  0  0  0  0  0  0  0
   13.1179   37.6317   34.5689 C   0  0  0  0  0  0  0  0  0  0  0  0
   15.2067   35.6140   32.6743 N   0  0  0  0  0  0  0  0  0  0  0  0
   14.6731   36.2273   34.9186 C   0  0  0  0  0  0  0  0  0  0  0  0
   13.8223   37.0456   35.5785 N   0  0  0  0  0  0  0  0  0  0  0  0
   16.1639   34.7595   33.1550 C   0  0  0  0  0  0  0  0  0  0  0  0
   15.6515   35.3491   35.4134 C   0  0  0  0  0  0  0  0  0  0  0  0
   16.3792   34.6310   34.5045 N   0  0  0  0  0  0  0  0  0  0  0  0
   15.9002   35.1934   36.8092 N   0  0  0  0  0  0  0  0  0  0  0  0
    9.8166   44.9906   32.1489 H   0  0  0  0  0  0  0  0  0  0  0  0
   11.9223   45.7039   32.9834 H   0  0  0  0  0  0  0  0  0  0  0  0
   11.2732   46.1185   34.4985 H   0  0  0  0  0  0  0  0  0  0  0  0
    8.7871   45.7870   34.9610 H   0  0  0  0  0  0  0  0  0  0  0  0
    7.8336   44.9364   33.6961 H   0  0  0  0  0  0  0  0  0  0  0  0
    8.4079   48.8816   31.2546 H   0  0  0  0  0  0  0  0  0  0  0  0
    6.6850   48.6736   31.6989 H   0  0  0  0  0  0  0  0  0  0  0  0
    5.3308   48.8849   29.8139 H   0  0  0  0  0  0  0  0  0  0  0  0
    8.4155   46.2162   26.9955 H   0  0  0  0  0  0  0  0  0  0  0  0
    4.7325   48.3355   27.4962 H   0  0  0  0  0  0  0  0  0  0  0  0
    6.2634   46.9911   26.0937 H   0  0  0  0  0  0  0  0  0  0  0  0
   11.3852   41.5435   31.4687 H   0  0  0  0  0  0  0  0  0  0  0  0
    9.8232   40.7212   31.7578 H   0  0  0  0  0  0  0  0  0  0  0  0
   11.6993   39.5066   30.3487 H   0  0  0  0  0  0  0  0  0  0  0  0
   10.1120   38.2723   32.6631 H   0  0  0  0  0  0  0  0  0  0  0  0
   13.6816   37.4634   31.2269 H   0  0  0  0  0  0  0  0  0  0  0  0
    9.0036   37.3828   30.9348 H   0  0  0  0  0  0  0  0  0  0  0  0
   11.2846   36.3041   32.4928 H   0  0  0  0  0  0  0  0  0  0  0  0
   11.8849   36.9591   29.7588 H   0  0  0  0  0  0  0  0  0  0  0  0
   12.3363   38.3599   34.7441 H   0  0  0  0  0  0  0  0  0  0  0  0
   16.7574   34.1791   32.4623 H   0  0  0  0  0  0  0  0  0  0  0  0
   16.6363   34.5317   37.1417 H   0  0  0  0  0  0  0  0  0  0  0  0
   15.3529   35.7356   37.5141 H   0  0  0  0  0  0  0  0  0  0  0  0
  1  2  2  0
  1  3  1  0
  3  4  1  0
  4  5  1  0
  6  1  1  0
  7  6  1  0
  6  8  1  0
  8  9  1  0
  9 10  1  0
  9 11  2  0
 10 12  1  0
 12 13  1  0
 13 14  2  0
 15 13  1  0
 14 16  1  0
 14 17  1  0
 18 15  2  0
 16 19  1  0
 16 20  2  0
 17 21  2  0
 21 18  1  0
  4 22  2  0
  4 23  1  0
 24 23  1  0
 24 25  1  0
 25 26  1  0
 25 27  1  0
 26 28  1  0
 27 29  1  0
 27 30  1  0
 30 28  1  0
 28 31  1  0
 30 32  1  0
 33 31  1  0
 34 31  1  0
 35 33  2  0
 33 36  1  0
 37 34  2  0
 38 35  1  0
 36 39  2  0
 36 37  1  0
 40 38  2  0
 40 39  1  0
 39 41  1  0
  6 42  1  6
  7 43  1  0
  7 44  1  0
  8 45  1  0
  8 46  1  0
 12 47  1  0
 12 48  1  0
 15 49  1  0
 17 50  1  0
 18 51  1  0
 21 52  1  0
 24 53  1  0
 24 54  1  0
 25 55  1  0
 27 56  1  0
 28 57  1  0
 29 58  1  0
 30 59  1  0
 32 60  1  0
 34 61  1  0
 38 62  1  0
 41 63  1  0
 41 64  1  0
M  CHG  3   5  -1  16   1  19  -1
M  END
>  <EmbedRMS>  (639) 
0.0883425724457842

$$$$

     RDKit          3D

 64 67  0  0  0  0  0  0  0  0999 V2000
   10.2846   43.7742   33.8067 C   0  0  0  0  0  0  0  0  0  0  0  0
   11.4069   43.5902   34.3636 O   0  0  0  0  0  0  0  0  0  0  0  0
    9.3681   42.7310   33.6986 O   0  0  0  0  0  0  0  0  0  0  0  0
    9.8863   41.2340   34.2826 P   0  0  0  0  0  5  0  0  0  0  0  0
   10.3670   41.4693   35.8732 O   0  0  0  0  0  1  0  0  0  0  0  0
    9.9493   45.1164   33.2549 C   0  0  2  0  0  0  0  0  0  0  0  0
   11.0750   46.0282   33.4733 N   0  0  0  0  0  0  0  0  0  0  0  0
    8.6780   45.6527   33.9436 C   0  0  0  0  0  0  0  0  0  0  0  0
    8.1851   46.9158   33.3063 C   0  0  0  0  0  0  0  0  0  0  0  0
    8.2411   48.1176   34.0219 O   0  0  0  0  0  0  0  0  0  0  0  0
    7.7245   46.8863   32.1322 O   0  0  0  0  0  0  0  0  0  0  0  0
    7.8136   49.3669   33.4798 C   0  0  0  0  0  0  0  0  0  0  0  0
    8.7880   49.8612   32.4336 C   0  0  0  0  0  0  0  0  0  0  0  0
    8.3614   50.3890   31.1875 C   0  0  0  0  0  0  0  0  0  0  0  0
   10.1656   49.7876   32.7100 C   0  0  0  0  0  0  0  0  0  0  0  0
    6.9710   50.5969   30.8935 N   0  0  0  0  0  4  0  0  0  0  0  0
    9.3239   50.7443   30.2257 C   0  0  0  0  0  0  0  0  0  0  0  0
   11.1063   50.1622   31.7497 C   0  0  0  0  0  0  0  0  0  0  0  0
    6.1644   51.2408   31.8034 O   0  0  0  0  0  1  0  0  0  0  0  0
    6.5416   50.4055   29.7370 O   0  0  0  0  0  0  0  0  0  0  0  0
   10.6863   50.6281   30.5053 C   0  0  0  0  0  0  0  0  0  0  0  0
    8.8083   40.1915   34.2077 O   0  0  0  0  0  0  0  0  0  0  0  0
   11.2377   40.7903   33.3657 O   0  0  0  0  0  0  0  0  0  0  0  0
   10.9147   40.6850   31.9929 C   0  0  0  0  0  0  0  0  0  0  0  0
   11.5168   39.3772   31.4392 C   0  0  0  0  0  0  0  0  0  0  0  0
   12.7473   39.0853   32.0738 O   0  0  0  0  0  0  0  0  0  0  0  0
   10.6048   38.1867   31.6669 C   0  0  0  0  0  0  0  0  0  0  0  0
   12.9346   37.6790   32.0282 C   0  0  0  0  0  0  0  0  0  0  0  0
    9.6378   38.0917   30.6489 O   0  0  0  0  0  0  0  0  0  0  0  0
   11.5761   37.0129   31.7057 C   0  0  0  0  0  0  0  0  0  0  0  0
   13.4909   37.2177   33.3233 N   0  0  0  0  0  0  0  0  0  0  0  0
   11.6233   36.3371   30.4684 O   0  0  0  0  0  0  0  0  0  0  0  0
   14.4765   36.3271   33.5727 C   0  0  0  0  0  0  0  0  0  0  0  0
   13.1182   37.6315   34.5685 C   0  0  0  0  0  0  0  0  0  0  0  0
   15.2066   35.6137   32.6739 N   0  0  0  0  0  0  0  0  0  0  0  0
   14.6736   36.2276   34.9182 C   0  0  0  0  0  0  0  0  0  0  0  0
   13.8227   37.0457   35.5781 N   0  0  0  0  0  0  0  0  0  0  0  0
   16.1638   34.7592   33.1548 C   0  0  0  0  0  0  0  0  0  0  0  0
   15.6517   35.3492   35.4131 C   0  0  0  0  0  0  0  0  0  0  0  0
   16.3792   34.6309   34.5043 N   0  0  0  0  0  0  0  0  0  0  0  0
   15.9002   35.1934   36.8090 N   0  0  0  0  0  0  0  0  0  0  0  0
    9.7640   45.0046   32.1624 H   0  0  0  0  0  0  0  0  0  0  0  0
   10.8455   46.9514   33.0412 H   0  0  0  0  0  0  0  0  0  0  0  0
   11.8966   45.6751   32.9293 H   0  0  0  0  0  0  0  0  0  0  0  0
    8.8834   45.8365   35.0212 H   0  0  0  0  0  0  0  0  0  0  0  0
    7.8628   44.8993   33.8790 H   0  0  0  0  0  0  0  0  0  0  0  0
    6.7887   49.2385   33.0761 H   0  0  0  0  0  0  0  0  0  0  0  0
    7.7663   50.1139   34.2994 H   0  0  0  0  0  0  0  0  0  0  0  0
   10.5136   49.4209   33.6679 H   0  0  0  0  0  0  0  0  0  0  0  0
    9.0169   51.1392   29.2654 H   0  0  0  0  0  0  0  0  0  0  0  0
   12.1633   50.0857   31.9697 H   0  0  0  0  0  0  0  0  0  0  0  0
   11.4176   50.9151   29.7607 H   0  0  0  0  0  0  0  0  0  0  0  0
   11.3878   41.5414   31.4666 H   0  0  0  0  0  0  0  0  0  0  0  0
    9.8247   40.7213   31.7562 H   0  0  0  0  0  0  0  0  0  0  0  0
   11.6989   39.5010   30.3465 H   0  0  0  0  0  0  0  0  0  0  0  0
   10.1097   38.2772   32.6629 H   0  0  0  0  0  0  0  0  0  0  0  0
   13.6672   37.4543   31.2212 H   0  0  0  0  0  0  0  0  0  0  0  0
    8.9779   37.4158   30.9534 H   0  0  0  0  0  0  0  0  0  0  0  0
   11.2860   36.3041   32.5177 H   0  0  0  0  0  0  0  0  0  0  0  0
   10.8689   35.6918   30.4657 H   0  0  0  0  0  0  0  0  0  0  0  0
   12.3356   38.3586   34.7439 H   0  0  0  0  0  0  0  0  0  0  0  0
   16.7572   34.1786   32.4621 H   0  0  0  0  0  0  0  0  0  0  0  0
   16.6361   34.5315   37.1416 H   0  0  0  0  0  0  0  0  0  0  0  0
   15.3530   35.7358   37.5138 H   0  0  0  0  0  0  0  0  0  0  0  0
  1  2  2  0
  1  3  1  0
  3  4  1  0
  4  5  1  0
  6  1  1  0
  7  6  1  0
  6  8  1  0
  8  9  1  0
  9 10  1  0
  9 11  2  0
 10 12  1  0
 12 13  1  0
 13 14  2  0
 15 13  1  0
 14 16  1  0
 14 17  1  0
 18 15  2  0
 16 19  1  0
 16 20  2  0
 17 21  2  0
 21 18  1  0
  4 22  2  0
  4 23  1  0
 24 23  1  0
 24 25  1  0
 25 26  1  0
 25 27  1  0
 26 28  1  0
 27 29  1  0
 27 30  1  0
 30 28  1  0
 28 31  1  0
 30 32  1  0
 33 31  1  0
 34 31  1  0
 35 33  2  0
 33 36  1  0
 37 34  2  0
 38 35  1  0
 36 39  2  0
 36 37  1  0
 40 38  2  0
 40 39  1  0
 39 41  1  0
  6 42  1  6
  7 43  1  0
  7 44  1  0
  8 45  1  0
  8 46  1  0
 12 47  1  0
 12 48  1  0
 15 49  1  0
 17 50  1  0
 18 51  1  0
 21 52  1  0
 24 53  1  0
 24 54  1  0
 25 55  1  0
 27 56  1  0
 28 57  1  0
 29 58  1  0
 30 59  1  0
 32 60  1  0
 34 61  1  0
 38 62  1  0
 41 63  1  0
 41 64  1  0
M  CHG  3   5  -1  16   1  19  -1
M  END
>  <EmbedRMS>  (640) 
0.08909566001294529

$$$$

     RDKit          3D

 64 67  0  0  0  0  0  0  0  0999 V2000
   10.2867   43.7708   33.8012 C   0  0  0  0  0  0  0  0  0  0  0  0
   11.4111   43.5845   34.3515 O   0  0  0  0  0  0  0  0  0  0  0  0
    9.3669   42.7306   33.6992 O   0  0  0  0  0  0  0  0  0  0  0  0
    9.8854   41.2341   34.2846 P   0  0  0  0  0  5  0  0  0  0  0  0
   10.3653   41.4703   35.8750 O   0  0  0  0  0  1  0  0  0  0  0  0
    9.9559   45.1140   33.2497 C   0  0  2  0  0  0  0  0  0  0  0  0
   11.0678   46.0365   33.4867 N   0  0  0  0  0  0  0  0  0  0  0  0
    8.6479   45.6641   33.8585 C   0  0  0  0  0  0  0  0  0  0  0  0
    8.7593   45.9914   35.3219 C   0  0  0  0  0  0  0  0  0  0  0  0
    9.3002   45.0546   36.2072 O   0  0  0  0  0  0  0  0  0  0  0  0
    8.3186   47.0935   35.7485 O   0  0  0  0  0  0  0  0  0  0  0  0
    9.2910   45.2275   37.6198 C   0  0  0  0  0  0  0  0  0  0  0  0
   10.0841   44.1192   38.2664 C   0  0  0  0  0  0  0  0  0  0  0  0
   11.4695   43.9162   38.0046 C   0  0  0  0  0  0  0  0  0  0  0  0
    9.4054   43.2175   39.1080 C   0  0  0  0  0  0  0  0  0  0  0  0
   12.2300   44.7921   37.1466 N   0  0  0  0  0  4  0  0  0  0  0  0
   12.1158   42.8077   38.5861 C   0  0  0  0  0  0  0  0  0  0  0  0
   10.0716   42.1341   39.6802 C   0  0  0  0  0  0  0  0  0  0  0  0
   11.9650   46.1399   37.0895 O   0  0  0  0  0  1  0  0  0  0  0  0
   13.2472   44.3642   36.5622 O   0  0  0  0  0  0  0  0  0  0  0  0
   11.4229   41.9281   39.4176 C   0  0  0  0  0  0  0  0  0  0  0  0
    8.8081   40.1911   34.2088 O   0  0  0  0  0  0  0  0  0  0  0  0
   11.2380   40.7899   33.3693 O   0  0  0  0  0  0  0  0  0  0  0  0
   10.9187   40.6888   31.9955 C   0  0  0  0  0  0  0  0  0  0  0  0
   11.5180   39.3802   31.4401 C   0  0  0  0  0  0  0  0  0  0  0  0
   12.7484   39.0877   32.0751 O   0  0  0  0  0  0  0  0  0  0  0  0
   10.6053   38.1875   31.6658 C   0  0  0  0  0  0  0  0  0  0  0  0
   12.9361   37.6817   32.0289 C   0  0  0  0  0  0  0  0  0  0  0  0
    9.6423   38.0739   30.6446 O   0  0  0  0  0  0  0  0  0  0  0  0
   11.5765   37.0159   31.7047 C   0  0  0  0  0  0  0  0  0  0  0  0
   13.4908   37.2184   33.3238 N   0  0  0  0  0  0  0  0  0  0  0  0
   11.6102   36.3400   30.4681 O   0  0  0  0  0  0  0  0  0  0  0  0
   14.4761   36.3274   33.5729 C   0  0  0  0  0  0  0  0  0  0  0  0
   13.1181   37.6320   34.5690 C   0  0  0  0  0  0  0  0  0  0  0  0
   15.2063   35.6141   32.6739 N   0  0  0  0  0  0  0  0  0  0  0  0
   14.6733   36.2276   34.9183 C   0  0  0  0  0  0  0  0  0  0  0  0
   13.8226   37.0458   35.5784 N   0  0  0  0  0  0  0  0  0  0  0  0
   16.1635   34.7595   33.1546 C   0  0  0  0  0  0  0  0  0  0  0  0
   15.6515   35.3493   35.4131 C   0  0  0  0  0  0  0  0  0  0  0  0
   16.3790   34.6310   34.5041 N   0  0  0  0  0  0  0  0  0  0  0  0
   15.9002   35.1934   36.8089 N   0  0  0  0  0  0  0  0  0  0  0  0
    9.8045   45.0008   32.1525 H   0  0  0  0  0  0  0  0  0  0  0  0
   11.8867   45.7214   32.9161 H   0  0  0  0  0  0  0  0  0  0  0  0
   10.8054   46.9750   33.1060 H   0  0  0  0  0  0  0  0  0  0  0  0
    7.8267   44.9285   33.7195 H   0  0  0  0  0  0  0  0  0  0  0  0
    8.3556   46.5806   33.3001 H   0  0  0  0  0  0  0  0  0  0  0  0
    9.7104   46.2143   37.9034 H   0  0  0  0  0  0  0  0  0  0  0  0
    8.2355   45.2222   37.9699 H   0  0  0  0  0  0  0  0  0  0  0  0
    8.3502   43.3444   39.3164 H   0  0  0  0  0  0  0  0  0  0  0  0
   13.1675   42.6275   38.4033 H   0  0  0  0  0  0  0  0  0  0  0  0
    9.5357   41.4482   40.3237 H   0  0  0  0  0  0  0  0  0  0  0  0
   11.9365   41.0839   39.8596 H   0  0  0  0  0  0  0  0  0  0  0  0
   11.3991   41.5438   31.4735 H   0  0  0  0  0  0  0  0  0  0  0  0
    9.8307   40.7374   31.7559 H   0  0  0  0  0  0  0  0  0  0  0  0
   11.7000   39.5050   30.3477 H   0  0  0  0  0  0  0  0  0  0  0  0
   10.1103   38.2618   32.6637 H   0  0  0  0  0  0  0  0  0  0  0  0
   13.6696   37.4588   31.2224 H   0  0  0  0  0  0  0  0  0  0  0  0
    8.9001   38.6884   30.8813 H   0  0  0  0  0  0  0  0  0  0  0  0
   11.2690   36.3070   32.5092 H   0  0  0  0  0  0  0  0  0  0  0  0
   12.1427   35.5152   30.6154 H   0  0  0  0  0  0  0  0  0  0  0  0
   12.3361   38.3597   34.7447 H   0  0  0  0  0  0  0  0  0  0  0  0
   16.7568   34.1789   32.4618 H   0  0  0  0  0  0  0  0  0  0  0  0
   15.3531   35.7358   37.5138 H   0  0  0  0  0  0  0  0  0  0  0  0
   16.6361   34.5316   37.1414 H   0  0  0  0  0  0  0  0  0  0  0  0
  1  2  2  0
  1  3  1  0
  3  4  1  0
  4  5  1  0
  6  1  1  0
  7  6  1  0
  6  8  1  0
  8  9  1  0
  9 10  1  0
  9 11  2  0
 10 12  1  0
 12 13  1  0
 13 14  2  0
 15 13  1  0
 14 16  1  0
 14 17  1  0
 18 15  2  0
 16 19  1  0
 16 20  2  0
 17 21  2  0
 21 18  1  0
  4 22  2  0
  4 23  1  0
 24 23  1  0
 24 25  1  0
 25 26  1  0
 25 27  1  0
 26 28  1  0
 27 29  1  0
 27 30  1  0
 30 28  1  0
 28 31  1  0
 30 32  1  0
 33 31  1  0
 34 31  1  0
 35 33  2  0
 33 36  1  0
 37 34  2  0
 38 35  1  0
 36 39  2  0
 36 37  1  0
 40 38  2  0
 40 39  1  0
 39 41  1  0
  6 42  1  6
  7 43  1  0
  7 44  1  0
  8 45  1  0
  8 46  1  0
 12 47  1  0
 12 48  1  0
 15 49  1  0
 17 50  1  0
 18 51  1  0
 21 52  1  0
 24 53  1  0
 24 54  1  0
 25 55  1  0
 27 56  1  0
 28 57  1  0
 29 58  1  0
 30 59  1  0
 32 60  1  0
 34 61  1  0
 38 62  1  0
 41 63  1  0
 41 64  1  0
M  CHG  3   5  -1  16   1  19  -1
M  END
>  <EmbedRMS>  (641) 
0.08923171250735182

$$$$

     RDKit          3D

 64 67  0  0  0  0  0  0  0  0999 V2000
   10.2839   43.7719   33.8098 C   0  0  0  0  0  0  0  0  0  0  0  0
   11.4076   43.5835   34.3623 O   0  0  0  0  0  0  0  0  0  0  0  0
    9.3722   42.7270   33.6949 O   0  0  0  0  0  0  0  0  0  0  0  0
    9.8862   41.2318   34.2840 P   0  0  0  0  0  5  0  0  0  0  0  0
   10.3643   41.4696   35.8748 O   0  0  0  0  0  1  0  0  0  0  0  0
    9.9543   45.1208   33.2556 C   0  0  2  0  0  0  0  0  0  0  0  0
   11.0700   46.0445   33.4711 N   0  0  0  0  0  0  0  0  0  0  0  0
    8.6810   45.7057   33.9000 C   0  0  0  0  0  0  0  0  0  0  0  0
    7.4341   45.0746   33.3577 C   0  0  0  0  0  0  0  0  0  0  0  0
    6.9442   43.9060   33.9450 O   0  0  0  0  0  0  0  0  0  0  0  0
    6.8607   45.5798   32.3541 O   0  0  0  0  0  0  0  0  0  0  0  0
    5.7934   43.2173   33.4673 C   0  0  0  0  0  0  0  0  0  0  0  0
    5.6888   41.8746   34.1478 C   0  0  0  0  0  0  0  0  0  0  0  0
    5.7388   41.7367   35.5614 C   0  0  0  0  0  0  0  0  0  0  0  0
    5.5849   40.7198   33.3493 C   0  0  0  0  0  0  0  0  0  0  0  0
    5.8185   42.8791   36.4334 N   0  0  0  0  0  4  0  0  0  0  0  0
    5.7238   40.4472   36.1246 C   0  0  0  0  0  0  0  0  0  0  0  0
    5.5531   39.4516   33.9302 C   0  0  0  0  0  0  0  0  0  0  0  0
    5.0890   44.0152   36.1704 O   0  0  0  0  0  1  0  0  0  0  0  0
    6.4260   42.7951   37.5208 O   0  0  0  0  0  0  0  0  0  0  0  0
    5.6291   39.3152   35.3145 C   0  0  0  0  0  0  0  0  0  0  0  0
    8.8088   40.1895   34.2081 O   0  0  0  0  0  0  0  0  0  0  0  0
   11.2378   40.7872   33.3691 O   0  0  0  0  0  0  0  0  0  0  0  0
   10.9164   40.6882   31.9958 C   0  0  0  0  0  0  0  0  0  0  0  0
   11.5251   39.3870   31.4364 C   0  0  0  0  0  0  0  0  0  0  0  0
   12.7487   39.0876   32.0798 O   0  0  0  0  0  0  0  0  0  0  0  0
   10.6098   38.1908   31.6472 C   0  0  0  0  0  0  0  0  0  0  0  0
   12.9346   37.6804   32.0291 C   0  0  0  0  0  0  0  0  0  0  0  0
    9.6122   38.0875   30.6550 O   0  0  0  0  0  0  0  0  0  0  0  0
   11.5763   37.0131   31.7026 C   0  0  0  0  0  0  0  0  0  0  0  0
   13.4900   37.2164   33.3235 N   0  0  0  0  0  0  0  0  0  0  0  0
   11.6317   36.3231   30.4740 O   0  0  0  0  0  0  0  0  0  0  0  0
   14.4762   36.3266   33.5727 C   0  0  0  0  0  0  0  0  0  0  0  0
   13.1177   37.6306   34.5688 C   0  0  0  0  0  0  0  0  0  0  0  0
   15.2065   35.6135   32.6738 N   0  0  0  0  0  0  0  0  0  0  0  0
   14.6736   36.2273   34.9182 C   0  0  0  0  0  0  0  0  0  0  0  0
   13.8227   37.0453   35.5782 N   0  0  0  0  0  0  0  0  0  0  0  0
   16.1640   34.7593   33.1547 C   0  0  0  0  0  0  0  0  0  0  0  0
   15.6518   35.3492   35.4131 C   0  0  0  0  0  0  0  0  0  0  0  0
   16.3794   34.6310   34.5042 N   0  0  0  0  0  0  0  0  0  0  0  0
   15.9003   35.1934   36.8089 N   0  0  0  0  0  0  0  0  0  0  0  0
    9.7951   45.0205   32.1588 H   0  0  0  0  0  0  0  0  0  0  0  0
   11.2891   46.1151   34.4926 H   0  0  0  0  0  0  0  0  0  0  0  0
   11.9189   45.6901   32.9718 H   0  0  0  0  0  0  0  0  0  0  0  0
    8.6344   46.7987   33.6984 H   0  0  0  0  0  0  0  0  0  0  0  0
    8.7128   45.5765   35.0042 H   0  0  0  0  0  0  0  0  0  0  0  0
    4.8797   43.8161   33.6644 H   0  0  0  0  0  0  0  0  0  0  0  0
    5.8793   43.0903   32.3653 H   0  0  0  0  0  0  0  0  0  0  0  0
    5.5428   40.7973   32.2698 H   0  0  0  0  0  0  0  0  0  0  0  0
    5.7688   40.3186   37.1987 H   0  0  0  0  0  0  0  0  0  0  0  0
    5.4794   38.5718   33.3040 H   0  0  0  0  0  0  0  0  0  0  0  0
    5.6112   38.3298   35.7619 H   0  0  0  0  0  0  0  0  0  0  0  0
   11.3855   41.5503   31.4750 H   0  0  0  0  0  0  0  0  0  0  0  0
    9.8263   40.7200   31.7583 H   0  0  0  0  0  0  0  0  0  0  0  0
   11.7268   39.5288   30.3501 H   0  0  0  0  0  0  0  0  0  0  0  0
   10.1120   38.2730   32.6393 H   0  0  0  0  0  0  0  0  0  0  0  0
   13.6682   37.4584   31.2223 H   0  0  0  0  0  0  0  0  0  0  0  0
   10.0508   38.1113   29.7651 H   0  0  0  0  0  0  0  0  0  0  0  0
   11.2798   36.3126   32.5195 H   0  0  0  0  0  0  0  0  0  0  0  0
   10.8619   35.6962   30.4643 H   0  0  0  0  0  0  0  0  0  0  0  0
   12.3350   38.3576   34.7443 H   0  0  0  0  0  0  0  0  0  0  0  0
   16.7574   34.1788   32.4620 H   0  0  0  0  0  0  0  0  0  0  0  0
   15.3529   35.7357   37.5137 H   0  0  0  0  0  0  0  0  0  0  0  0
   16.6362   34.5317   37.1416 H   0  0  0  0  0  0  0  0  0  0  0  0
  1  2  2  0
  1  3  1  0
  3  4  1  0
  4  5  1  0
  6  1  1  0
  7  6  1  0
  6  8  1  0
  8  9  1  0
  9 10  1  0
  9 11  2  0
 10 12  1  0
 12 13  1  0
 13 14  2  0
 15 13  1  0
 14 16  1  0
 14 17  1  0
 18 15  2  0
 16 19  1  0
 16 20  2  0
 17 21  2  0
 21 18  1  0
  4 22  2  0
  4 23  1  0
 24 23  1  0
 24 25  1  0
 25 26  1  0
 25 27  1  0
 26 28  1  0
 27 29  1  0
 27 30  1  0
 30 28  1  0
 28 31  1  0
 30 32  1  0
 33 31  1  0
 34 31  1  0
 35 33  2  0
 33 36  1  0
 37 34  2  0
 38 35  1  0
 36 39  2  0
 36 37  1  0
 40 38  2  0
 40 39  1  0
 39 41  1  0
  6 42  1  6
  7 43  1  0
  7 44  1  0
  8 45  1  0
  8 46  1  0
 12 47  1  0
 12 48  1  0
 15 49  1  0
 17 50  1  0
 18 51  1  0
 21 52  1  0
 24 53  1  0
 24 54  1  0
 25 55  1  0
 27 56  1  0
 28 57  1  0
 29 58  1  0
 30 59  1  0
 32 60  1  0
 34 61  1  0
 38 62  1  0
 41 63  1  0
 41 64  1  0
M  CHG  3   5  -1  16   1  19  -1
M  END
>  <EmbedRMS>  (642) 
0.0890576397684579

$$$$

     RDKit          3D

 64 67  0  0  0  0  0  0  0  0999 V2000
   10.2843   43.7743   33.8075 C   0  0  0  0  0  0  0  0  0  0  0  0
   11.4069   43.5905   34.3641 O   0  0  0  0  0  0  0  0  0  0  0  0
    9.3682   42.7309   33.6990 O   0  0  0  0  0  0  0  0  0  0  0  0
    9.8864   41.2339   34.2832 P   0  0  0  0  0  5  0  0  0  0  0  0
   10.3660   41.4693   35.8740 O   0  0  0  0  0  1  0  0  0  0  0  0
    9.9503   45.1151   33.2526 C   0  0  2  0  0  0  0  0  0  0  0  0
   11.0748   46.0280   33.4739 N   0  0  0  0  0  0  0  0  0  0  0  0
    8.6753   45.6537   33.9320 C   0  0  0  0  0  0  0  0  0  0  0  0
    8.1794   46.8968   33.2601 C   0  0  0  0  0  0  0  0  0  0  0  0
    7.7136   46.8233   31.9451 O   0  0  0  0  0  0  0  0  0  0  0  0
    8.2056   47.9984   33.8740 O   0  0  0  0  0  0  0  0  0  0  0  0
    7.3020   47.9688   31.2066 C   0  0  0  0  0  0  0  0  0  0  0  0
    6.9728   47.5680   29.7905 C   0  0  0  0  0  0  0  0  0  0  0  0
    7.8897   46.8477   28.9774 C   0  0  0  0  0  0  0  0  0  0  0  0
    5.7046   47.8921   29.2735 C   0  0  0  0  0  0  0  0  0  0  0  0
    9.2094   46.5053   29.4398 N   0  0  0  0  0  4  0  0  0  0  0  0
    7.4921   46.4456   27.6889 C   0  0  0  0  0  0  0  0  0  0  0  0
    5.3374   47.4971   27.9866 C   0  0  0  0  0  0  0  0  0  0  0  0
    9.9559   47.4056   30.1636 O   0  0  0  0  0  1  0  0  0  0  0  0
    9.7529   45.4497   29.0539 O   0  0  0  0  0  0  0  0  0  0  0  0
    6.2272   46.7709   27.1979 C   0  0  0  0  0  0  0  0  0  0  0  0
    8.8088   40.1911   34.2072 O   0  0  0  0  0  0  0  0  0  0  0  0
   11.2391   40.7901   33.3682 O   0  0  0  0  0  0  0  0  0  0  0  0
   10.9198   40.6896   31.9945 C   0  0  0  0  0  0  0  0  0  0  0  0
   11.5173   39.3801   31.4395 C   0  0  0  0  0  0  0  0  0  0  0  0
   12.7480   39.0861   32.0732 O   0  0  0  0  0  0  0  0  0  0  0  0
   10.6032   38.1892   31.6665 C   0  0  0  0  0  0  0  0  0  0  0  0
   12.9335   37.6796   32.0279 C   0  0  0  0  0  0  0  0  0  0  0  0
    9.6397   38.0777   30.6456 O   0  0  0  0  0  0  0  0  0  0  0  0
   11.5739   37.0154   31.7057 C   0  0  0  0  0  0  0  0  0  0  0  0
   13.4903   37.2178   33.3230 N   0  0  0  0  0  0  0  0  0  0  0  0
   11.6210   36.3376   30.4695 O   0  0  0  0  0  0  0  0  0  0  0  0
   14.4761   36.3273   33.5725 C   0  0  0  0  0  0  0  0  0  0  0  0
   13.1178   37.6316   34.5684 C   0  0  0  0  0  0  0  0  0  0  0  0
   15.2063   35.6139   32.6737 N   0  0  0  0  0  0  0  0  0  0  0  0
   14.6734   36.2277   34.9179 C   0  0  0  0  0  0  0  0  0  0  0  0
   13.8225   37.0459   35.5779 N   0  0  0  0  0  0  0  0  0  0  0  0
   16.1636   34.7594   33.1546 C   0  0  0  0  0  0  0  0  0  0  0  0
   15.6515   35.3494   35.4129 C   0  0  0  0  0  0  0  0  0  0  0  0
   16.3791   34.6311   34.5041 N   0  0  0  0  0  0  0  0  0  0  0  0
   15.9001   35.1935   36.8088 N   0  0  0  0  0  0  0  0  0  0  0  0
    9.7715   44.9995   32.1594 H   0  0  0  0  0  0  0  0  0  0  0  0
   11.8930   45.6837   32.9191 H   0  0  0  0  0  0  0  0  0  0  0  0
   10.8404   46.9588   33.0596 H   0  0  0  0  0  0  0  0  0  0  0  0
    7.8641   44.8958   33.8741 H   0  0  0  0  0  0  0  0  0  0  0  0
    8.8760   45.8548   35.0079 H   0  0  0  0  0  0  0  0  0  0  0  0
    8.1072   48.7335   31.1970 H   0  0  0  0  0  0  0  0  0  0  0  0
    6.4200   48.4209   31.7111 H   0  0  0  0  0  0  0  0  0  0  0  0
    4.9902   48.4449   29.8712 H   0  0  0  0  0  0  0  0  0  0  0  0
    8.1724   45.8913   27.0545 H   0  0  0  0  0  0  0  0  0  0  0  0
    4.3575   47.7497   27.6023 H   0  0  0  0  0  0  0  0  0  0  0  0
    5.9381   46.4623   26.2016 H   0  0  0  0  0  0  0  0  0  0  0  0
    9.8320   40.7399   31.7543 H   0  0  0  0  0  0  0  0  0  0  0  0
   11.4016   41.5437   31.4724 H   0  0  0  0  0  0  0  0  0  0  0  0
   11.6984   39.5041   30.3468 H   0  0  0  0  0  0  0  0  0  0  0  0
   10.1091   38.2634   32.6649 H   0  0  0  0  0  0  0  0  0  0  0  0
   13.6656   37.4539   31.2207 H   0  0  0  0  0  0  0  0  0  0  0  0
    8.8968   38.6904   30.8849 H   0  0  0  0  0  0  0  0  0  0  0  0
   11.2845   36.3060   32.5175 H   0  0  0  0  0  0  0  0  0  0  0  0
   10.8522   35.7095   30.4590 H   0  0  0  0  0  0  0  0  0  0  0  0
   12.3353   38.3588   34.7439 H   0  0  0  0  0  0  0  0  0  0  0  0
   16.7570   34.1788   32.4619 H   0  0  0  0  0  0  0  0  0  0  0  0
   16.6360   34.5317   37.1413 H   0  0  0  0  0  0  0  0  0  0  0  0
   15.3529   35.7359   37.5136 H   0  0  0  0  0  0  0  0  0  0  0  0
  1  2  2  0
  1  3  1  0
  3  4  1  0
  4  5  1  0
  6  1  1  0
  7  6  1  0
  6  8  1  0
  8  9  1  0
  9 10  1  0
  9 11  2  0
 10 12  1  0
 12 13  1  0
 13 14  2  0
 15 13  1  0
 14 16  1  0
 14 17  1  0
 18 15  2  0
 16 19  1  0
 16 20  2  0
 17 21  2  0
 21 18  1  0
  4 22  2  0
  4 23  1  0
 24 23  1  0
 24 25  1  0
 25 26  1  0
 25 27  1  0
 26 28  1  0
 27 29  1  0
 27 30  1  0
 30 28  1  0
 28 31  1  0
 30 32  1  0
 33 31  1  0
 34 31  1  0
 35 33  2  0
 33 36  1  0
 37 34  2  0
 38 35  1  0
 36 39  2  0
 36 37  1  0
 40 38  2  0
 40 39  1  0
 39 41  1  0
  6 42  1  6
  7 43  1  0
  7 44  1  0
  8 45  1  0
  8 46  1  0
 12 47  1  0
 12 48  1  0
 15 49  1  0
 17 50  1  0
 18 51  1  0
 21 52  1  0
 24 53  1  0
 24 54  1  0
 25 55  1  0
 27 56  1  0
 28 57  1  0
 29 58  1  0
 30 59  1  0
 32 60  1  0
 34 61  1  0
 38 62  1  0
 41 63  1  0
 41 64  1  0
M  CHG  3   5  -1  16   1  19  -1
M  END
>  <EmbedRMS>  (643) 
0.0894607262595672

$$$$

     RDKit          3D

 64 67  0  0  0  0  0  0  0  0999 V2000
   10.2879   43.7686   33.8081 C   0  0  0  0  0  0  0  0  0  0  0  0
   11.4118   43.5792   34.3592 O   0  0  0  0  0  0  0  0  0  0  0  0
    9.3667   42.7303   33.7018 O   0  0  0  0  0  0  0  0  0  0  0  0
    9.8841   41.2328   34.2849 P   0  0  0  0  0  5  0  0  0  0  0  0
   10.3641   41.4683   35.8755 O   0  0  0  0  0  1  0  0  0  0  0  0
    9.9633   45.1120   33.2480 C   0  0  2  0  0  0  0  0  0  0  0  0
   11.0622   46.0539   33.4763 N   0  0  0  0  0  0  0  0  0  0  0  0
    8.6437   45.6686   33.8163 C   0  0  0  0  0  0  0  0  0  0  0  0
    8.6721   45.8201   35.3084 C   0  0  0  0  0  0  0  0  0  0  0  0
    9.1023   47.0276   35.8693 O   0  0  0  0  0  0  0  0  0  0  0  0
    8.3379   44.8504   36.0418 O   0  0  0  0  0  0  0  0  0  0  0  0
    9.2055   47.2504   37.2748 C   0  0  0  0  0  0  0  0  0  0  0  0
    7.8366   47.2935   37.9160 C   0  0  0  0  0  0  0  0  0  0  0  0
    7.4946   46.5199   39.0572 C   0  0  0  0  0  0  0  0  0  0  0  0
    6.9007   48.2122   37.4072 C   0  0  0  0  0  0  0  0  0  0  0  0
    8.3970   45.5590   39.6249 N   0  0  0  0  0  4  0  0  0  0  0  0
    6.2376   46.7005   39.6586 C   0  0  0  0  0  0  0  0  0  0  0  0
    5.6497   48.3631   38.0071 C   0  0  0  0  0  0  0  0  0  0  0  0
    8.5017   45.4512   40.9924 O   0  0  0  0  0  1  0  0  0  0  0  0
    8.8762   44.6534   38.9125 O   0  0  0  0  0  0  0  0  0  0  0  0
    5.3201   47.6113   39.1332 C   0  0  0  0  0  0  0  0  0  0  0  0
    8.8067   40.1900   34.2080 O   0  0  0  0  0  0  0  0  0  0  0  0
   11.2372   40.7898   33.3701 O   0  0  0  0  0  0  0  0  0  0  0  0
   10.9186   40.6904   31.9964 C   0  0  0  0  0  0  0  0  0  0  0  0
   11.5174   39.3824   31.4413 C   0  0  0  0  0  0  0  0  0  0  0  0
   12.7494   39.0893   32.0756 O   0  0  0  0  0  0  0  0  0  0  0  0
   10.6036   38.1899   31.6659 C   0  0  0  0  0  0  0  0  0  0  0  0
   12.9401   37.6834   32.0276 C   0  0  0  0  0  0  0  0  0  0  0  0
    9.6376   38.0785   30.6474 O   0  0  0  0  0  0  0  0  0  0  0  0
   11.5804   37.0204   31.6937 C   0  0  0  0  0  0  0  0  0  0  0  0
   13.4902   37.2177   33.3237 N   0  0  0  0  0  0  0  0  0  0  0  0
   11.6118   36.3193   30.4680 O   0  0  0  0  0  0  0  0  0  0  0  0
   14.4759   36.3271   33.5731 C   0  0  0  0  0  0  0  0  0  0  0  0
   13.1176   37.6317   34.5688 C   0  0  0  0  0  0  0  0  0  0  0  0
   15.2064   35.6142   32.6742 N   0  0  0  0  0  0  0  0  0  0  0  0
   14.6729   36.2274   34.9184 C   0  0  0  0  0  0  0  0  0  0  0  0
   13.8221   37.0457   35.5783 N   0  0  0  0  0  0  0  0  0  0  0  0
   16.1637   34.7597   33.1549 C   0  0  0  0  0  0  0  0  0  0  0  0
   15.6514   35.3493   35.4133 C   0  0  0  0  0  0  0  0  0  0  0  0
   16.3791   34.6312   34.5044 N   0  0  0  0  0  0  0  0  0  0  0  0
   15.9001   35.1935   36.8091 N   0  0  0  0  0  0  0  0  0  0  0  0
    9.8301   44.9933   32.1501 H   0  0  0  0  0  0  0  0  0  0  0  0
   11.3035   46.0977   34.4937 H   0  0  0  0  0  0  0  0  0  0  0  0
   11.9094   45.7263   32.9565 H   0  0  0  0  0  0  0  0  0  0  0  0
    7.8027   44.9990   33.5313 H   0  0  0  0  0  0  0  0  0  0  0  0
    8.4393   46.6600   33.3574 H   0  0  0  0  0  0  0  0  0  0  0  0
    9.6931   48.2348   37.4358 H   0  0  0  0  0  0  0  0  0  0  0  0
    9.8799   46.4940   37.7201 H   0  0  0  0  0  0  0  0  0  0  0  0
    7.1467   48.8238   36.5475 H   0  0  0  0  0  0  0  0  0  0  0  0
    5.9618   46.1198   40.5299 H   0  0  0  0  0  0  0  0  0  0  0  0
    4.9387   49.0727   37.6040 H   0  0  0  0  0  0  0  0  0  0  0  0
    4.3517   47.7344   39.6008 H   0  0  0  0  0  0  0  0  0  0  0  0
   11.3998   41.5455   31.4754 H   0  0  0  0  0  0  0  0  0  0  0  0
    9.8308   40.7397   31.7560 H   0  0  0  0  0  0  0  0  0  0  0  0
   11.6988   39.5093   30.3490 H   0  0  0  0  0  0  0  0  0  0  0  0
   10.1129   38.2587   32.6664 H   0  0  0  0  0  0  0  0  0  0  0  0
   13.6800   37.4628   31.2265 H   0  0  0  0  0  0  0  0  0  0  0  0
    8.8952   38.6907   30.8891 H   0  0  0  0  0  0  0  0  0  0  0  0
   11.2831   36.3059   32.4929 H   0  0  0  0  0  0  0  0  0  0  0  0
   11.8859   36.9589   29.7593 H   0  0  0  0  0  0  0  0  0  0  0  0
   12.3360   38.3600   34.7442 H   0  0  0  0  0  0  0  0  0  0  0  0
   16.7572   34.1793   32.4621 H   0  0  0  0  0  0  0  0  0  0  0  0
   15.3528   35.7356   37.5140 H   0  0  0  0  0  0  0  0  0  0  0  0
   16.6362   34.5318   37.1416 H   0  0  0  0  0  0  0  0  0  0  0  0
  1  2  2  0
  1  3  1  0
  3  4  1  0
  4  5  1  0
  6  1  1  0
  7  6  1  0
  6  8  1  0
  8  9  1  0
  9 10  1  0
  9 11  2  0
 10 12  1  0
 12 13  1  0
 13 14  2  0
 15 13  1  0
 14 16  1  0
 14 17  1  0
 18 15  2  0
 16 19  1  0
 16 20  2  0
 17 21  2  0
 21 18  1  0
  4 22  2  0
  4 23  1  0
 24 23  1  0
 24 25  1  0
 25 26  1  0
 25 27  1  0
 26 28  1  0
 27 29  1  0
 27 30  1  0
 30 28  1  0
 28 31  1  0
 30 32  1  0
 33 31  1  0
 34 31  1  0
 35 33  2  0
 33 36  1  0
 37 34  2  0
 38 35  1  0
 36 39  2  0
 36 37  1  0
 40 38  2  0
 40 39  1  0
 39 41  1  0
  6 42  1  6
  7 43  1  0
  7 44  1  0
  8 45  1  0
  8 46  1  0
 12 47  1  0
 12 48  1  0
 15 49  1  0
 17 50  1  0
 18 51  1  0
 21 52  1  0
 24 53  1  0
 24 54  1  0
 25 55  1  0
 27 56  1  0
 28 57  1  0
 29 58  1  0
 30 59  1  0
 32 60  1  0
 34 61  1  0
 38 62  1  0
 41 63  1  0
 41 64  1  0
M  CHG  3   5  -1  16   1  19  -1
M  END
>  <EmbedRMS>  (644) 
0.0889689148746043

$$$$

     RDKit          3D

 64 67  0  0  0  0  0  0  0  0999 V2000
   10.2791   43.7768   33.8121 C   0  0  0  0  0  0  0  0  0  0  0  0
   11.4054   43.5921   34.3608 O   0  0  0  0  0  0  0  0  0  0  0  0
    9.3670   42.7303   33.7015 O   0  0  0  0  0  0  0  0  0  0  0  0
    9.8871   41.2337   34.2841 P   0  0  0  0  0  5  0  0  0  0  0  0
   10.3663   41.4688   35.8749 O   0  0  0  0  0  1  0  0  0  0  0  0
    9.9525   45.1165   33.2450 C   0  0  2  0  0  0  0  0  0  0  0  0
   11.0769   46.0246   33.4786 N   0  0  0  0  0  0  0  0  0  0  0  0
    8.6557   45.7002   33.8525 C   0  0  0  0  0  0  0  0  0  0  0  0
    7.4298   44.9261   33.4675 C   0  0  0  0  0  0  0  0  0  0  0  0
    6.5219   44.5449   34.4594 O   0  0  0  0  0  0  0  0  0  0  0  0
    7.2053   44.6592   32.2548 O   0  0  0  0  0  0  0  0  0  0  0  0
    5.3744   43.7482   34.1857 C   0  0  0  0  0  0  0  0  0  0  0  0
    4.5421   43.6164   35.4350 C   0  0  0  0  0  0  0  0  0  0  0  0
    4.8201   42.6435   36.4323 C   0  0  0  0  0  0  0  0  0  0  0  0
    3.4529   44.4890   35.6113 C   0  0  0  0  0  0  0  0  0  0  0  0
    5.9526   41.7618   36.3411 N   0  0  0  0  0  4  0  0  0  0  0  0
    3.9634   42.5369   37.5422 C   0  0  0  0  0  0  0  0  0  0  0  0
    2.6259   44.3784   36.7299 C   0  0  0  0  0  0  0  0  0  0  0  0
    5.8901   40.5034   36.8942 O   0  0  0  0  0  1  0  0  0  0  0  0
    7.0547   42.1860   35.9390 O   0  0  0  0  0  0  0  0  0  0  0  0
    2.8758   43.3990   37.6892 C   0  0  0  0  0  0  0  0  0  0  0  0
    8.8101   40.1902   34.2071 O   0  0  0  0  0  0  0  0  0  0  0  0
   11.2395   40.7917   33.3687 O   0  0  0  0  0  0  0  0  0  0  0  0
   10.9190   40.6907   31.9956 C   0  0  0  0  0  0  0  0  0  0  0  0
   11.5175   39.3823   31.4410 C   0  0  0  0  0  0  0  0  0  0  0  0
   12.7495   39.0892   32.0755 O   0  0  0  0  0  0  0  0  0  0  0  0
   10.6036   38.1900   31.6660 C   0  0  0  0  0  0  0  0  0  0  0  0
   12.9400   37.6833   32.0276 C   0  0  0  0  0  0  0  0  0  0  0  0
    9.6375   38.0786   30.6475 O   0  0  0  0  0  0  0  0  0  0  0  0
   11.5803   37.0204   31.6937 C   0  0  0  0  0  0  0  0  0  0  0  0
   13.4901   37.2177   33.3237 N   0  0  0  0  0  0  0  0  0  0  0  0
   11.6117   36.3193   30.4680 O   0  0  0  0  0  0  0  0  0  0  0  0
   14.4758   36.3271   33.5731 C   0  0  0  0  0  0  0  0  0  0  0  0
   13.1175   37.6317   34.5688 C   0  0  0  0  0  0  0  0  0  0  0  0
   15.2064   35.6141   32.6742 N   0  0  0  0  0  0  0  0  0  0  0  0
   14.6729   36.2274   34.9184 C   0  0  0  0  0  0  0  0  0  0  0  0
   13.8221   37.0457   35.5783 N   0  0  0  0  0  0  0  0  0  0  0  0
   16.1637   34.7597   33.1549 C   0  0  0  0  0  0  0  0  0  0  0  0
   15.6514   35.3493   35.4133 C   0  0  0  0  0  0  0  0  0  0  0  0
   16.3791   34.6312   34.5044 N   0  0  0  0  0  0  0  0  0  0  0  0
   15.9001   35.1935   36.8091 N   0  0  0  0  0  0  0  0  0  0  0  0
    9.8246   44.9984   32.1461 H   0  0  0  0  0  0  0  0  0  0  0  0
   11.1173   46.2816   34.4928 H   0  0  0  0  0  0  0  0  0  0  0  0
   10.9108   46.9073   32.9421 H   0  0  0  0  0  0  0  0  0  0  0  0
    8.5210   46.7453   33.4999 H   0  0  0  0  0  0  0  0  0  0  0  0
    8.7408   45.7284   34.9611 H   0  0  0  0  0  0  0  0  0  0  0  0
    5.6855   42.7464   33.8188 H   0  0  0  0  0  0  0  0  0  0  0  0
    4.7778   44.2216   33.3746 H   0  0  0  0  0  0  0  0  0  0  0  0
    3.2348   45.2515   34.8734 H   0  0  0  0  0  0  0  0  0  0  0  0
    4.1517   41.7971   38.3099 H   0  0  0  0  0  0  0  0  0  0  0  0
    1.7862   45.0507   36.8502 H   0  0  0  0  0  0  0  0  0  0  0  0
    2.2306   43.3129   38.5540 H   0  0  0  0  0  0  0  0  0  0  0  0
    9.8309   40.7397   31.7562 H   0  0  0  0  0  0  0  0  0  0  0  0
   11.3993   41.5454   31.4731 H   0  0  0  0  0  0  0  0  0  0  0  0
   11.6990   39.5089   30.3487 H   0  0  0  0  0  0  0  0  0  0  0  0
   10.1131   38.2591   32.6665 H   0  0  0  0  0  0  0  0  0  0  0  0
   13.6800   37.4626   31.2265 H   0  0  0  0  0  0  0  0  0  0  0  0
    8.8951   38.6909   30.8893 H   0  0  0  0  0  0  0  0  0  0  0  0
   11.2829   36.3060   32.4930 H   0  0  0  0  0  0  0  0  0  0  0  0
   11.8858   36.9589   29.7593 H   0  0  0  0  0  0  0  0  0  0  0  0
   12.3360   38.3600   34.7441 H   0  0  0  0  0  0  0  0  0  0  0  0
   16.7572   34.1793   32.4621 H   0  0  0  0  0  0  0  0  0  0  0  0
   16.6362   34.5318   37.1416 H   0  0  0  0  0  0  0  0  0  0  0  0
   15.3528   35.7357   37.5140 H   0  0  0  0  0  0  0  0  0  0  0  0
  1  2  2  0
  1  3  1  0
  3  4  1  0
  4  5  1  0
  6  1  1  0
  7  6  1  0
  6  8  1  0
  8  9  1  0
  9 10  1  0
  9 11  2  0
 10 12  1  0
 12 13  1  0
 13 14  2  0
 15 13  1  0
 14 16  1  0
 14 17  1  0
 18 15  2  0
 16 19  1  0
 16 20  2  0
 17 21  2  0
 21 18  1  0
  4 22  2  0
  4 23  1  0
 24 23  1  0
 24 25  1  0
 25 26  1  0
 25 27  1  0
 26 28  1  0
 27 29  1  0
 27 30  1  0
 30 28  1  0
 28 31  1  0
 30 32  1  0
 33 31  1  0
 34 31  1  0
 35 33  2  0
 33 36  1  0
 37 34  2  0
 38 35  1  0
 36 39  2  0
 36 37  1  0
 40 38  2  0
 40 39  1  0
 39 41  1  0
  6 42  1  6
  7 43  1  0
  7 44  1  0
  8 45  1  0
  8 46  1  0
 12 47  1  0
 12 48  1  0
 15 49  1  0
 17 50  1  0
 18 51  1  0
 21 52  1  0
 24 53  1  0
 24 54  1  0
 25 55  1  0
 27 56  1  0
 28 57  1  0
 29 58  1  0
 30 59  1  0
 32 60  1  0
 34 61  1  0
 38 62  1  0
 41 63  1  0
 41 64  1  0
M  CHG  3   5  -1  16   1  19  -1
M  END
>  <EmbedRMS>  (645) 
0.08825721758838163

$$$$

     RDKit          3D

 64 67  0  0  0  0  0  0  0  0999 V2000
   10.2863   43.7709   33.8097 C   0  0  0  0  0  0  0  0  0  0  0  0
   11.4100   43.5817   34.3616 O   0  0  0  0  0  0  0  0  0  0  0  0
    9.3670   42.7306   33.7015 O   0  0  0  0  0  0  0  0  0  0  0  0
    9.8850   41.2327   34.2837 P   0  0  0  0  0  5  0  0  0  0  0  0
   10.3652   41.4675   35.8745 O   0  0  0  0  0  1  0  0  0  0  0  0
    9.9605   45.1125   33.2476 C   0  0  2  0  0  0  0  0  0  0  0  0
   11.0657   46.0478   33.4748 N   0  0  0  0  0  0  0  0  0  0  0  0
    8.6651   45.6566   33.8728 C   0  0  0  0  0  0  0  0  0  0  0  0
    8.2792   46.9664   33.2591 C   0  0  0  0  0  0  0  0  0  0  0  0
    8.7676   48.1531   33.8120 O   0  0  0  0  0  0  0  0  0  0  0  0
    7.5515   46.9870   32.2289 O   0  0  0  0  0  0  0  0  0  0  0  0
    8.4606   49.4362   33.2760 C   0  0  0  0  0  0  0  0  0  0  0  0
    9.1118   50.5080   34.1144 C   0  0  0  0  0  0  0  0  0  0  0  0
    8.9120   50.5951   35.5191 C   0  0  0  0  0  0  0  0  0  0  0  0
    9.9706   51.4285   33.4850 C   0  0  0  0  0  0  0  0  0  0  0  0
    8.0323   49.6962   36.2198 N   0  0  0  0  0  4  0  0  0  0  0  0
    9.6048   51.5789   36.2490 C   0  0  0  0  0  0  0  0  0  0  0  0
   10.6353   52.4058   34.2266 C   0  0  0  0  0  0  0  0  0  0  0  0
    6.8276   49.3218   35.6720 O   0  0  0  0  0  1  0  0  0  0  0  0
    8.2790   49.3737   37.4005 O   0  0  0  0  0  0  0  0  0  0  0  0
   10.4565   52.4779   35.6063 C   0  0  0  0  0  0  0  0  0  0  0  0
    8.8074   40.1901   34.2072 O   0  0  0  0  0  0  0  0  0  0  0  0
   11.2378   40.7898   33.3683 O   0  0  0  0  0  0  0  0  0  0  0  0
   10.9186   40.6887   31.9946 C   0  0  0  0  0  0  0  0  0  0  0  0
   11.5180   39.3799   31.4397 C   0  0  0  0  0  0  0  0  0  0  0  0
   12.7483   39.0875   32.0750 O   0  0  0  0  0  0  0  0  0  0  0  0
   10.6053   38.1874   31.6656 C   0  0  0  0  0  0  0  0  0  0  0  0
   12.9361   37.6816   32.0288 C   0  0  0  0  0  0  0  0  0  0  0  0
    9.6423   38.0737   30.6445 O   0  0  0  0  0  0  0  0  0  0  0  0
   11.5765   37.0158   31.7046 C   0  0  0  0  0  0  0  0  0  0  0  0
   13.4908   37.2183   33.3237 N   0  0  0  0  0  0  0  0  0  0  0  0
   11.6103   36.3399   30.4680 O   0  0  0  0  0  0  0  0  0  0  0  0
   14.4762   36.3273   33.5728 C   0  0  0  0  0  0  0  0  0  0  0  0
   13.1181   37.6318   34.5689 C   0  0  0  0  0  0  0  0  0  0  0  0
   15.2063   35.6141   32.6739 N   0  0  0  0  0  0  0  0  0  0  0  0
   14.6733   36.2275   34.9182 C   0  0  0  0  0  0  0  0  0  0  0  0
   13.8226   37.0457   35.5783 N   0  0  0  0  0  0  0  0  0  0  0  0
   16.1636   34.7595   33.1546 C   0  0  0  0  0  0  0  0  0  0  0  0
   15.6515   35.3492   35.4130 C   0  0  0  0  0  0  0  0  0  0  0  0
   16.3791   34.6310   34.5041 N   0  0  0  0  0  0  0  0  0  0  0  0
   15.9003   35.1934   36.8089 N   0  0  0  0  0  0  0  0  0  0  0  0
    9.8087   44.9960   32.1515 H   0  0  0  0  0  0  0  0  0  0  0  0
   11.9222   45.7014   32.9833 H   0  0  0  0  0  0  0  0  0  0  0  0
   11.2748   46.1195   34.4982 H   0  0  0  0  0  0  0  0  0  0  0  0
    7.8355   44.9317   33.7193 H   0  0  0  0  0  0  0  0  0  0  0  0
    8.7978   45.7919   34.9686 H   0  0  0  0  0  0  0  0  0  0  0  0
    8.8209   49.4793   32.2246 H   0  0  0  0  0  0  0  0  0  0  0  0
    7.3619   49.5944   33.2549 H   0  0  0  0  0  0  0  0  0  0  0  0
   10.1366   51.3860   32.4155 H   0  0  0  0  0  0  0  0  0  0  0  0
    9.4716   51.6608   37.3204 H   0  0  0  0  0  0  0  0  0  0  0  0
   11.2955   53.1054   33.7304 H   0  0  0  0  0  0  0  0  0  0  0  0
   10.9764   53.2346   36.1796 H   0  0  0  0  0  0  0  0  0  0  0  0
    9.8307   40.7373   31.7548 H   0  0  0  0  0  0  0  0  0  0  0  0
   11.3991   41.5435   31.4725 H   0  0  0  0  0  0  0  0  0  0  0  0
   11.7002   39.5044   30.3472 H   0  0  0  0  0  0  0  0  0  0  0  0
   10.1104   38.2618   32.6636 H   0  0  0  0  0  0  0  0  0  0  0  0
   13.6696   37.4587   31.2222 H   0  0  0  0  0  0  0  0  0  0  0  0
    8.8999   38.6880   30.8814 H   0  0  0  0  0  0  0  0  0  0  0  0
   11.2690   36.3068   32.5091 H   0  0  0  0  0  0  0  0  0  0  0  0
   12.1427   35.5151   30.6153 H   0  0  0  0  0  0  0  0  0  0  0  0
   12.3359   38.3593   34.7445 H   0  0  0  0  0  0  0  0  0  0  0  0
   16.7569   34.1789   32.4618 H   0  0  0  0  0  0  0  0  0  0  0  0
   16.6362   34.5315   37.1414 H   0  0  0  0  0  0  0  0  0  0  0  0
   15.3530   35.7356   37.5138 H   0  0  0  0  0  0  0  0  0  0  0  0
  1  2  2  0
  1  3  1  0
  3  4  1  0
  4  5  1  0
  6  1  1  0
  7  6  1  0
  6  8  1  0
  8  9  1  0
  9 10  1  0
  9 11  2  0
 10 12  1  0
 12 13  1  0
 13 14  2  0
 15 13  1  0
 14 16  1  0
 14 17  1  0
 18 15  2  0
 16 19  1  0
 16 20  2  0
 17 21  2  0
 21 18  1  0
  4 22  2  0
  4 23  1  0
 24 23  1  0
 24 25  1  0
 25 26  1  0
 25 27  1  0
 26 28  1  0
 27 29  1  0
 27 30  1  0
 30 28  1  0
 28 31  1  0
 30 32  1  0
 33 31  1  0
 34 31  1  0
 35 33  2  0
 33 36  1  0
 37 34  2  0
 38 35  1  0
 36 39  2  0
 36 37  1  0
 40 38  2  0
 40 39  1  0
 39 41  1  0
  6 42  1  6
  7 43  1  0
  7 44  1  0
  8 45  1  0
  8 46  1  0
 12 47  1  0
 12 48  1  0
 15 49  1  0
 17 50  1  0
 18 51  1  0
 21 52  1  0
 24 53  1  0
 24 54  1  0
 25 55  1  0
 27 56  1  0
 28 57  1  0
 29 58  1  0
 30 59  1  0
 32 60  1  0
 34 61  1  0
 38 62  1  0
 41 63  1  0
 41 64  1  0
M  CHG  3   5  -1  16   1  19  -1
M  END
>  <EmbedRMS>  (646) 
0.08983169476069185

$$$$

     RDKit          3D

 64 67  0  0  0  0  0  0  0  0999 V2000
   10.2876   43.7689   33.8089 C   0  0  0  0  0  0  0  0  0  0  0  0
   11.4116   43.5794   34.3597 O   0  0  0  0  0  0  0  0  0  0  0  0
    9.3666   42.7304   33.7022 O   0  0  0  0  0  0  0  0  0  0  0  0
    9.8841   41.2327   34.2848 P   0  0  0  0  0  5  0  0  0  0  0  0
   10.3643   41.4680   35.8755 O   0  0  0  0  0  1  0  0  0  0  0  0
    9.9639   45.1115   33.2467 C   0  0  2  0  0  0  0  0  0  0  0  0
   11.0621   46.0541   33.4763 N   0  0  0  0  0  0  0  0  0  0  0  0
    8.6422   45.6681   33.8100 C   0  0  0  0  0  0  0  0  0  0  0  0
    8.6660   45.8249   35.3016 C   0  0  0  0  0  0  0  0  0  0  0  0
    9.1410   47.0144   35.8598 O   0  0  0  0  0  0  0  0  0  0  0  0
    8.2875   44.8739   36.0391 O   0  0  0  0  0  0  0  0  0  0  0  0
    9.2236   47.2259   37.2655 C   0  0  0  0  0  0  0  0  0  0  0  0
    9.7544   48.6109   37.5409 C   0  0  0  0  0  0  0  0  0  0  0  0
    9.1336   49.7790   37.0169 C   0  0  0  0  0  0  0  0  0  0  0  0
   10.9252   48.7431   38.3109 C   0  0  0  0  0  0  0  0  0  0  0  0
    7.9286   49.7203   36.2306 N   0  0  0  0  0  4  0  0  0  0  0  0
    9.7243   51.0328   37.2566 C   0  0  0  0  0  0  0  0  0  0  0  0
   11.4841   49.9991   38.5490 C   0  0  0  0  0  0  0  0  0  0  0  0
    7.6844   50.6809   35.2761 O   0  0  0  0  0  1  0  0  0  0  0  0
    7.0227   48.9079   36.5070 O   0  0  0  0  0  0  0  0  0  0  0  0
   10.8875   51.1409   38.0194 C   0  0  0  0  0  0  0  0  0  0  0  0
    8.8068   40.1900   34.2079 O   0  0  0  0  0  0  0  0  0  0  0  0
   11.2373   40.7900   33.3700 O   0  0  0  0  0  0  0  0  0  0  0  0
   10.9185   40.6904   31.9964 C   0  0  0  0  0  0  0  0  0  0  0  0
   11.5174   39.3824   31.4413 C   0  0  0  0  0  0  0  0  0  0  0  0
   12.7494   39.0893   32.0756 O   0  0  0  0  0  0  0  0  0  0  0  0
   10.6036   38.1899   31.6659 C   0  0  0  0  0  0  0  0  0  0  0  0
   12.9401   37.6834   32.0276 C   0  0  0  0  0  0  0  0  0  0  0  0
    9.6376   38.0784   30.6474 O   0  0  0  0  0  0  0  0  0  0  0  0
   11.5804   37.0204   31.6937 C   0  0  0  0  0  0  0  0  0  0  0  0
   13.4902   37.2177   33.3237 N   0  0  0  0  0  0  0  0  0  0  0  0
   11.6118   36.3193   30.4680 O   0  0  0  0  0  0  0  0  0  0  0  0
   14.4758   36.3271   33.5731 C   0  0  0  0  0  0  0  0  0  0  0  0
   13.1176   37.6317   34.5688 C   0  0  0  0  0  0  0  0  0  0  0  0
   15.2064   35.6142   32.6742 N   0  0  0  0  0  0  0  0  0  0  0  0
   14.6729   36.2274   34.9184 C   0  0  0  0  0  0  0  0  0  0  0  0
   13.8221   37.0457   35.5783 N   0  0  0  0  0  0  0  0  0  0  0  0
   16.1637   34.7597   33.1549 C   0  0  0  0  0  0  0  0  0  0  0  0
   15.6514   35.3493   35.4132 C   0  0  0  0  0  0  0  0  0  0  0  0
   16.3791   34.6312   34.5043 N   0  0  0  0  0  0  0  0  0  0  0  0
   15.9001   35.1935   36.8091 N   0  0  0  0  0  0  0  0  0  0  0  0
    9.8337   44.9913   32.1487 H   0  0  0  0  0  0  0  0  0  0  0  0
   11.9092   45.7280   32.9556 H   0  0  0  0  0  0  0  0  0  0  0  0
   11.3044   46.0963   34.4935 H   0  0  0  0  0  0  0  0  0  0  0  0
    8.4386   46.6584   33.3482 H   0  0  0  0  0  0  0  0  0  0  0  0
    7.8026   44.9973   33.5236 H   0  0  0  0  0  0  0  0  0  0  0  0
    8.2239   47.1073   37.7341 H   0  0  0  0  0  0  0  0  0  0  0  0
    9.8877   46.4495   37.7054 H   0  0  0  0  0  0  0  0  0  0  0  0
   11.4162   47.8701   38.7230 H   0  0  0  0  0  0  0  0  0  0  0  0
    9.2724   51.9350   36.8644 H   0  0  0  0  0  0  0  0  0  0  0  0
   12.3863   50.0862   39.1408 H   0  0  0  0  0  0  0  0  0  0  0  0
   11.3258   52.1137   38.2023 H   0  0  0  0  0  0  0  0  0  0  0  0
    9.8307   40.7397   31.7559 H   0  0  0  0  0  0  0  0  0  0  0  0
   11.3997   41.5455   31.4753 H   0  0  0  0  0  0  0  0  0  0  0  0
   11.6988   39.5093   30.3490 H   0  0  0  0  0  0  0  0  0  0  0  0
   10.1129   38.2587   32.6664 H   0  0  0  0  0  0  0  0  0  0  0  0
   13.6800   37.4628   31.2265 H   0  0  0  0  0  0  0  0  0  0  0  0
    8.8952   38.6907   30.8891 H   0  0  0  0  0  0  0  0  0  0  0  0
   11.2831   36.3060   32.4929 H   0  0  0  0  0  0  0  0  0  0  0  0
   11.8860   36.9589   29.7593 H   0  0  0  0  0  0  0  0  0  0  0  0
   12.3360   38.3600   34.7442 H   0  0  0  0  0  0  0  0  0  0  0  0
   16.7572   34.1793   32.4621 H   0  0  0  0  0  0  0  0  0  0  0  0
   16.6362   34.5318   37.1416 H   0  0  0  0  0  0  0  0  0  0  0  0
   15.3528   35.7357   37.5140 H   0  0  0  0  0  0  0  0  0  0  0  0
  1  2  2  0
  1  3  1  0
  3  4  1  0
  4  5  1  0
  6  1  1  0
  7  6  1  0
  6  8  1  0
  8  9  1  0
  9 10  1  0
  9 11  2  0
 10 12  1  0
 12 13  1  0
 13 14  2  0
 15 13  1  0
 14 16  1  0
 14 17  1  0
 18 15  2  0
 16 19  1  0
 16 20  2  0
 17 21  2  0
 21 18  1  0
  4 22  2  0
  4 23  1  0
 24 23  1  0
 24 25  1  0
 25 26  1  0
 25 27  1  0
 26 28  1  0
 27 29  1  0
 27 30  1  0
 30 28  1  0
 28 31  1  0
 30 32  1  0
 33 31  1  0
 34 31  1  0
 35 33  2  0
 33 36  1  0
 37 34  2  0
 38 35  1  0
 36 39  2  0
 36 37  1  0
 40 38  2  0
 40 39  1  0
 39 41  1  0
  6 42  1  6
  7 43  1  0
  7 44  1  0
  8 45  1  0
  8 46  1  0
 12 47  1  0
 12 48  1  0
 15 49  1  0
 17 50  1  0
 18 51  1  0
 21 52  1  0
 24 53  1  0
 24 54  1  0
 25 55  1  0
 27 56  1  0
 28 57  1  0
 29 58  1  0
 30 59  1  0
 32 60  1  0
 34 61  1  0
 38 62  1  0
 41 63  1  0
 41 64  1  0
M  CHG  3   5  -1  16   1  19  -1
M  END
>  <EmbedRMS>  (647) 
0.08897182090524117

$$$$

     RDKit          3D

 64 67  0  0  0  0  0  0  0  0999 V2000
   10.2860   43.7719   33.8045 C   0  0  0  0  0  0  0  0  0  0  0  0
   11.4086   43.5881   34.3606 O   0  0  0  0  0  0  0  0  0  0  0  0
    9.3671   42.7311   33.6995 O   0  0  0  0  0  0  0  0  0  0  0  0
    9.8850   41.2344   34.2845 P   0  0  0  0  0  5  0  0  0  0  0  0
   10.3655   41.4704   35.8749 O   0  0  0  0  0  1  0  0  0  0  0  0
    9.9532   45.1148   33.2533 C   0  0  2  0  0  0  0  0  0  0  0  0
   11.0711   46.0333   33.4770 N   0  0  0  0  0  0  0  0  0  0  0  0
    8.6592   45.6657   33.8868 C   0  0  0  0  0  0  0  0  0  0  0  0
    8.7696   45.8183   35.3756 C   0  0  0  0  0  0  0  0  0  0  0  0
    9.4921   46.8902   35.9063 O   0  0  0  0  0  0  0  0  0  0  0  0
    8.2367   44.9631   36.1346 O   0  0  0  0  0  0  0  0  0  0  0  0
    9.6465   47.0948   37.3063 C   0  0  0  0  0  0  0  0  0  0  0  0
   10.5323   48.2894   37.5409 C   0  0  0  0  0  0  0  0  0  0  0  0
   11.9469   48.1832   37.6105 C   0  0  0  0  0  0  0  0  0  0  0  0
    9.9289   49.5513   37.6868 C   0  0  0  0  0  0  0  0  0  0  0  0
   12.6247   46.9289   37.4137 N   0  0  0  0  0  4  0  0  0  0  0  0
   12.7063   49.3364   37.8820 C   0  0  0  0  0  0  0  0  0  0  0  0
   10.7020   50.6853   37.9387 C   0  0  0  0  0  0  0  0  0  0  0  0
   12.2124   46.0561   36.4339 O   0  0  0  0  0  1  0  0  0  0  0  0
   13.6973   46.6974   38.0094 O   0  0  0  0  0  0  0  0  0  0  0  0
   12.0873   50.5769   38.0436 C   0  0  0  0  0  0  0  0  0  0  0  0
    8.8076   40.1914   34.2088 O   0  0  0  0  0  0  0  0  0  0  0  0
   11.2368   40.7903   33.3690 O   0  0  0  0  0  0  0  0  0  0  0  0
   10.9155   40.6898   31.9960 C   0  0  0  0  0  0  0  0  0  0  0  0
   11.5270   39.3898   31.4374 C   0  0  0  0  0  0  0  0  0  0  0  0
   12.7508   39.0916   32.0839 O   0  0  0  0  0  0  0  0  0  0  0  0
   10.6122   38.1916   31.6452 C   0  0  0  0  0  0  0  0  0  0  0  0
   12.9429   37.6853   32.0295 C   0  0  0  0  0  0  0  0  0  0  0  0
    9.6070   38.0858   30.6603 O   0  0  0  0  0  0  0  0  0  0  0  0
   11.5845   37.0186   31.6880 C   0  0  0  0  0  0  0  0  0  0  0  0
   13.4899   37.2163   33.3250 N   0  0  0  0  0  0  0  0  0  0  0  0
   11.6201   36.3062   30.4693 O   0  0  0  0  0  0  0  0  0  0  0  0
   14.4759   36.3263   33.5739 C   0  0  0  0  0  0  0  0  0  0  0  0
   13.1176   37.6308   34.5699 C   0  0  0  0  0  0  0  0  0  0  0  0
   15.2065   35.6139   32.6746 N   0  0  0  0  0  0  0  0  0  0  0  0
   14.6731   36.2267   34.9191 C   0  0  0  0  0  0  0  0  0  0  0  0
   13.8224   37.0450   35.5792 N   0  0  0  0  0  0  0  0  0  0  0  0
   16.1640   34.7596   33.1551 C   0  0  0  0  0  0  0  0  0  0  0  0
   15.6517   35.3489   35.4136 C   0  0  0  0  0  0  0  0  0  0  0  0
   16.3795   34.6310   34.5046 N   0  0  0  0  0  0  0  0  0  0  0  0
   15.9006   35.1931   36.8094 N   0  0  0  0  0  0  0  0  0  0  0  0
    9.7850   45.0058   32.1582 H   0  0  0  0  0  0  0  0  0  0  0  0
   10.8113   46.9716   33.0942 H   0  0  0  0  0  0  0  0  0  0  0  0
   11.8839   45.7118   32.9012 H   0  0  0  0  0  0  0  0  0  0  0  0
    7.8084   44.9922   33.6422 H   0  0  0  0  0  0  0  0  0  0  0  0
    8.4226   46.6565   33.4429 H   0  0  0  0  0  0  0  0  0  0  0  0
    8.6471   47.2588   37.7662 H   0  0  0  0  0  0  0  0  0  0  0  0
   10.0770   46.1895   37.7856 H   0  0  0  0  0  0  0  0  0  0  0  0
    8.8530   49.6566   37.6158 H   0  0  0  0  0  0  0  0  0  0  0  0
   13.7854   49.2784   37.9476 H   0  0  0  0  0  0  0  0  0  0  0  0
   10.2251   51.6498   38.0568 H   0  0  0  0  0  0  0  0  0  0  0  0
   12.6846   51.4574   38.2422 H   0  0  0  0  0  0  0  0  0  0  0  0
    9.8254   40.7191   31.7587 H   0  0  0  0  0  0  0  0  0  0  0  0
   11.3825   41.5526   31.4747 H   0  0  0  0  0  0  0  0  0  0  0  0
   11.7318   39.5338   30.3520 H   0  0  0  0  0  0  0  0  0  0  0  0
   10.1215   38.2682   32.6413 H   0  0  0  0  0  0  0  0  0  0  0  0
   13.6882   37.4708   31.2319 H   0  0  0  0  0  0  0  0  0  0  0  0
   10.0257   38.1751   29.7656 H   0  0  0  0  0  0  0  0  0  0  0  0
   11.2796   36.3124   32.4916 H   0  0  0  0  0  0  0  0  0  0  0  0
   11.9871   36.9099   29.7714 H   0  0  0  0  0  0  0  0  0  0  0  0
   12.3366   38.3596   34.7453 H   0  0  0  0  0  0  0  0  0  0  0  0
   16.7576   34.1794   32.4622 H   0  0  0  0  0  0  0  0  0  0  0  0
   15.3532   35.7351   37.5144 H   0  0  0  0  0  0  0  0  0  0  0  0
   16.6368   34.5316   37.1418 H   0  0  0  0  0  0  0  0  0  0  0  0
  1  2  2  0
  1  3  1  0
  3  4  1  0
  4  5  1  0
  6  1  1  0
  7  6  1  0
  6  8  1  0
  8  9  1  0
  9 10  1  0
  9 11  2  0
 10 12  1  0
 12 13  1  0
 13 14  2  0
 15 13  1  0
 14 16  1  0
 14 17  1  0
 18 15  2  0
 16 19  1  0
 16 20  2  0
 17 21  2  0
 21 18  1  0
  4 22  2  0
  4 23  1  0
 24 23  1  0
 24 25  1  0
 25 26  1  0
 25 27  1  0
 26 28  1  0
 27 29  1  0
 27 30  1  0
 30 28  1  0
 28 31  1  0
 30 32  1  0
 33 31  1  0
 34 31  1  0
 35 33  2  0
 33 36  1  0
 37 34  2  0
 38 35  1  0
 36 39  2  0
 36 37  1  0
 40 38  2  0
 40 39  1  0
 39 41  1  0
  6 42  1  6
  7 43  1  0
  7 44  1  0
  8 45  1  0
  8 46  1  0
 12 47  1  0
 12 48  1  0
 15 49  1  0
 17 50  1  0
 18 51  1  0
 21 52  1  0
 24 53  1  0
 24 54  1  0
 25 55  1  0
 27 56  1  0
 28 57  1  0
 29 58  1  0
 30 59  1  0
 32 60  1  0
 34 61  1  0
 38 62  1  0
 41 63  1  0
 41 64  1  0
M  CHG  3   5  -1  16   1  19  -1
M  END
>  <EmbedRMS>  (648) 
0.08697790618486483

$$$$

     RDKit          3D

 64 67  0  0  0  0  0  0  0  0999 V2000
   10.2850   43.7725   33.8063 C   0  0  0  0  0  0  0  0  0  0  0  0
   11.4106   43.5874   34.3558 O   0  0  0  0  0  0  0  0  0  0  0  0
    9.3663   42.7315   33.7015 O   0  0  0  0  0  0  0  0  0  0  0  0
    9.8851   41.2344   34.2845 P   0  0  0  0  0  5  0  0  0  0  0  0
   10.3663   41.4698   35.8747 O   0  0  0  0  0  1  0  0  0  0  0  0
    9.9579   45.1110   33.2442 C   0  0  2  0  0  0  0  0  0  0  0  0
   11.0674   46.0366   33.4851 N   0  0  0  0  0  0  0  0  0  0  0  0
    8.6202   45.6580   33.7921 C   0  0  0  0  0  0  0  0  0  0  0  0
    8.6108   45.7978   35.2857 C   0  0  0  0  0  0  0  0  0  0  0  0
    8.9590   47.0231   35.8645 O   0  0  0  0  0  0  0  0  0  0  0  0
    8.3143   44.8054   36.0050 O   0  0  0  0  0  0  0  0  0  0  0  0
    9.0160   47.2405   37.2736 C   0  0  0  0  0  0  0  0  0  0  0  0
    7.6320   47.2003   37.8818 C   0  0  0  0  0  0  0  0  0  0  0  0
    7.3076   46.3990   39.0089 C   0  0  0  0  0  0  0  0  0  0  0  0
    6.6574   48.0682   37.3565 C   0  0  0  0  0  0  0  0  0  0  0  0
    8.2498   45.4867   39.5919 N   0  0  0  0  0  4  0  0  0  0  0  0
    6.0282   46.5025   39.5806 C   0  0  0  0  0  0  0  0  0  0  0  0
    5.3857   48.1422   37.9266 C   0  0  0  0  0  0  0  0  0  0  0  0
    8.3276   45.3738   40.9608 O   0  0  0  0  0  1  0  0  0  0  0  0
    8.7970   44.6157   38.8852 O   0  0  0  0  0  0  0  0  0  0  0  0
    5.0729   47.3636   39.0391 C   0  0  0  0  0  0  0  0  0  0  0  0
    8.8076   40.1914   34.2091 O   0  0  0  0  0  0  0  0  0  0  0  0
   11.2365   40.7913   33.3673 O   0  0  0  0  0  0  0  0  0  0  0  0
   10.9132   40.6861   31.9948 C   0  0  0  0  0  0  0  0  0  0  0  0
   11.5168   39.3798   31.4411 C   0  0  0  0  0  0  0  0  0  0  0  0
   12.7486   39.0887   32.0764 O   0  0  0  0  0  0  0  0  0  0  0  0
   10.6050   38.1876   31.6660 C   0  0  0  0  0  0  0  0  0  0  0  0
   12.9411   37.6829   32.0278 C   0  0  0  0  0  0  0  0  0  0  0  0
    9.6358   38.0930   30.6503 O   0  0  0  0  0  0  0  0  0  0  0  0
   11.5827   37.0180   31.6937 C   0  0  0  0  0  0  0  0  0  0  0  0
   13.4909   37.2177   33.3239 N   0  0  0  0  0  0  0  0  0  0  0  0
   11.6141   36.3180   30.4675 O   0  0  0  0  0  0  0  0  0  0  0  0
   14.4762   36.3270   33.5733 C   0  0  0  0  0  0  0  0  0  0  0  0
   13.1179   37.6316   34.5689 C   0  0  0  0  0  0  0  0  0  0  0  0
   15.2067   35.6140   32.6743 N   0  0  0  0  0  0  0  0  0  0  0  0
   14.6731   36.2273   34.9186 C   0  0  0  0  0  0  0  0  0  0  0  0
   13.8223   37.0456   35.5785 N   0  0  0  0  0  0  0  0  0  0  0  0
   16.1639   34.7595   33.1550 C   0  0  0  0  0  0  0  0  0  0  0  0
   15.6515   35.3491   35.4134 C   0  0  0  0  0  0  0  0  0  0  0  0
   16.3792   34.6310   34.5045 N   0  0  0  0  0  0  0  0  0  0  0  0
   15.9002   35.1933   36.8092 N   0  0  0  0  0  0  0  0  0  0  0  0
    9.8473   44.9848   32.1449 H   0  0  0  0  0  0  0  0  0  0  0  0
   10.8543   46.9451   33.0126 H   0  0  0  0  0  0  0  0  0  0  0  0
   11.1586   46.2316   34.5087 H   0  0  0  0  0  0  0  0  0  0  0  0
    8.4139   46.6497   33.3349 H   0  0  0  0  0  0  0  0  0  0  0  0
    7.7908   44.9840   33.4850 H   0  0  0  0  0  0  0  0  0  0  0  0
    9.7217   46.5204   37.7301 H   0  0  0  0  0  0  0  0  0  0  0  0
    9.4424   48.2499   37.4526 H   0  0  0  0  0  0  0  0  0  0  0  0
    6.8884   48.6998   36.5072 H   0  0  0  0  0  0  0  0  0  0  0  0
    5.7654   45.8997   40.4409 H   0  0  0  0  0  0  0  0  0  0  0  0
    4.6450   48.8133   37.5112 H   0  0  0  0  0  0  0  0  0  0  0  0
    4.0881   47.4271   39.4837 H   0  0  0  0  0  0  0  0  0  0  0  0
    9.8231   40.7209   31.7585 H   0  0  0  0  0  0  0  0  0  0  0  0
   11.3849   41.5434   31.4688 H   0  0  0  0  0  0  0  0  0  0  0  0
   11.6993   39.5067   30.3489 H   0  0  0  0  0  0  0  0  0  0  0  0
   10.1119   38.2722   32.6632 H   0  0  0  0  0  0  0  0  0  0  0  0
   13.6816   37.4634   31.2269 H   0  0  0  0  0  0  0  0  0  0  0  0
    9.0037   37.3828   30.9348 H   0  0  0  0  0  0  0  0  0  0  0  0
   11.2846   36.3041   32.4928 H   0  0  0  0  0  0  0  0  0  0  0  0
   11.8850   36.9591   29.7589 H   0  0  0  0  0  0  0  0  0  0  0  0
   12.3363   38.3599   34.7441 H   0  0  0  0  0  0  0  0  0  0  0  0
   16.7574   34.1791   32.4623 H   0  0  0  0  0  0  0  0  0  0  0  0
   16.6363   34.5316   37.1418 H   0  0  0  0  0  0  0  0  0  0  0  0
   15.3529   35.7355   37.5141 H   0  0  0  0  0  0  0  0  0  0  0  0
  1  2  2  0
  1  3  1  0
  3  4  1  0
  4  5  1  0
  6  1  1  0
  7  6  1  0
  6  8  1  0
  8  9  1  0
  9 10  1  0
  9 11  2  0
 10 12  1  0
 12 13  1  0
 13 14  2  0
 15 13  1  0
 14 16  1  0
 14 17  1  0
 18 15  2  0
 16 19  1  0
 16 20  2  0
 17 21  2  0
 21 18  1  0
  4 22  2  0
  4 23  1  0
 24 23  1  0
 24 25  1  0
 25 26  1  0
 25 27  1  0
 26 28  1  0
 27 29  1  0
 27 30  1  0
 30 28  1  0
 28 31  1  0
 30 32  1  0
 33 31  1  0
 34 31  1  0
 35 33  2  0
 33 36  1  0
 37 34  2  0
 38 35  1  0
 36 39  2  0
 36 37  1  0
 40 38  2  0
 40 39  1  0
 39 41  1  0
  6 42  1  6
  7 43  1  0
  7 44  1  0
  8 45  1  0
  8 46  1  0
 12 47  1  0
 12 48  1  0
 15 49  1  0
 17 50  1  0
 18 51  1  0
 21 52  1  0
 24 53  1  0
 24 54  1  0
 25 55  1  0
 27 56  1  0
 28 57  1  0
 29 58  1  0
 30 59  1  0
 32 60  1  0
 34 61  1  0
 38 62  1  0
 41 63  1  0
 41 64  1  0
M  CHG  3   5  -1  16   1  19  -1
M  END
>  <EmbedRMS>  (649) 
0.08772239807362635

$$$$

     RDKit          3D

 64 67  0  0  0  0  0  0  0  0999 V2000
   10.2844   43.7743   33.8069 C   0  0  0  0  0  0  0  0  0  0  0  0
   11.4069   43.5903   34.3635 O   0  0  0  0  0  0  0  0  0  0  0  0
    9.3678   42.7312   33.6991 O   0  0  0  0  0  0  0  0  0  0  0  0
    9.8856   41.2344   34.2840 P   0  0  0  0  0  5  0  0  0  0  0  0
   10.3659   41.4699   35.8746 O   0  0  0  0  0  1  0  0  0  0  0  0
    9.9494   45.1163   33.2544 C   0  0  2  0  0  0  0  0  0  0  0  0
   11.0752   46.0281   33.4735 N   0  0  0  0  0  0  0  0  0  0  0  0
    8.6781   45.6536   33.9407 C   0  0  0  0  0  0  0  0  0  0  0  0
    8.1763   46.8980   33.2758 C   0  0  0  0  0  0  0  0  0  0  0  0
    7.5656   46.8062   32.0203 O   0  0  0  0  0  0  0  0  0  0  0  0
    8.3252   48.0149   33.8416 O   0  0  0  0  0  0  0  0  0  0  0  0
    7.0594   47.9333   31.3066 C   0  0  0  0  0  0  0  0  0  0  0  0
    5.8379   48.5019   31.9930 C   0  0  0  0  0  0  0  0  0  0  0  0
    5.6853   49.8867   32.2645 C   0  0  0  0  0  0  0  0  0  0  0  0
    4.7731   47.6277   32.2777 C   0  0  0  0  0  0  0  0  0  0  0  0
    6.7355   50.8291   32.0029 N   0  0  0  0  0  4  0  0  0  0  0  0
    4.4739   50.3530   32.8043 C   0  0  0  0  0  0  0  0  0  0  0  0
    3.5843   48.1068   32.8299 C   0  0  0  0  0  0  0  0  0  0  0  0
    7.9756   50.6500   32.5699 O   0  0  0  0  0  1  0  0  0  0  0  0
    6.4643   51.9318   31.4844 O   0  0  0  0  0  0  0  0  0  0  0  0
    3.4337   49.4677   33.0898 C   0  0  0  0  0  0  0  0  0  0  0  0
    8.8081   40.1915   34.2083 O   0  0  0  0  0  0  0  0  0  0  0  0
   11.2373   40.7905   33.3686 O   0  0  0  0  0  0  0  0  0  0  0  0
   10.9157   40.6897   31.9957 C   0  0  0  0  0  0  0  0  0  0  0  0
   11.5271   39.3897   31.4372 C   0  0  0  0  0  0  0  0  0  0  0  0
   12.7508   39.0915   32.0837 O   0  0  0  0  0  0  0  0  0  0  0  0
   10.6122   38.1916   31.6451 C   0  0  0  0  0  0  0  0  0  0  0  0
   12.9429   37.6852   32.0295 C   0  0  0  0  0  0  0  0  0  0  0  0
    9.6070   38.0858   30.6603 O   0  0  0  0  0  0  0  0  0  0  0  0
   11.5845   37.0185   31.6879 C   0  0  0  0  0  0  0  0  0  0  0  0
   13.4899   37.2163   33.3250 N   0  0  0  0  0  0  0  0  0  0  0  0
   11.6201   36.3062   30.4693 O   0  0  0  0  0  0  0  0  0  0  0  0
   14.4759   36.3263   33.5738 C   0  0  0  0  0  0  0  0  0  0  0  0
   13.1175   37.6307   34.5699 C   0  0  0  0  0  0  0  0  0  0  0  0
   15.2065   35.6139   32.6746 N   0  0  0  0  0  0  0  0  0  0  0  0
   14.6731   36.2267   34.9191 C   0  0  0  0  0  0  0  0  0  0  0  0
   13.8224   37.0450   35.5792 N   0  0  0  0  0  0  0  0  0  0  0  0
   16.1640   34.7596   33.1551 C   0  0  0  0  0  0  0  0  0  0  0  0
   15.6517   35.3489   35.4136 C   0  0  0  0  0  0  0  0  0  0  0  0
   16.3795   34.6310   34.5046 N   0  0  0  0  0  0  0  0  0  0  0  0
   15.9006   35.1931   36.8094 N   0  0  0  0  0  0  0  0  0  0  0  0
    9.7649   45.0041   32.1617 H   0  0  0  0  0  0  0  0  0  0  0  0
   10.8432   46.9570   33.0538 H   0  0  0  0  0  0  0  0  0  0  0  0
   11.8941   45.6799   32.9221 H   0  0  0  0  0  0  0  0  0  0  0  0
    7.8671   44.8950   33.8877 H   0  0  0  0  0  0  0  0  0  0  0  0
    8.8836   45.8534   35.0160 H   0  0  0  0  0  0  0  0  0  0  0  0
    6.7596   47.5970   30.2919 H   0  0  0  0  0  0  0  0  0  0  0  0
    7.8697   48.6738   31.1639 H   0  0  0  0  0  0  0  0  0  0  0  0
    4.8605   46.5701   32.0599 H   0  0  0  0  0  0  0  0  0  0  0  0
    4.3423   51.4063   33.0181 H   0  0  0  0  0  0  0  0  0  0  0  0
    2.7741   47.4225   33.0463 H   0  0  0  0  0  0  0  0  0  0  0  0
    2.5088   49.8381   33.5127 H   0  0  0  0  0  0  0  0  0  0  0  0
    9.8256   40.7190   31.7585 H   0  0  0  0  0  0  0  0  0  0  0  0
   11.3827   41.5525   31.4742 H   0  0  0  0  0  0  0  0  0  0  0  0
   11.7320   39.5336   30.3518 H   0  0  0  0  0  0  0  0  0  0  0  0
   10.1215   38.2683   32.6412 H   0  0  0  0  0  0  0  0  0  0  0  0
   13.6882   37.4706   31.2319 H   0  0  0  0  0  0  0  0  0  0  0  0
   10.0256   38.1750   29.7656 H   0  0  0  0  0  0  0  0  0  0  0  0
   11.2795   36.3123   32.4915 H   0  0  0  0  0  0  0  0  0  0  0  0
   11.9872   36.9099   29.7714 H   0  0  0  0  0  0  0  0  0  0  0  0
   12.3365   38.3595   34.7453 H   0  0  0  0  0  0  0  0  0  0  0  0
   16.7577   34.1794   32.4622 H   0  0  0  0  0  0  0  0  0  0  0  0
   15.3532   35.7351   37.5143 H   0  0  0  0  0  0  0  0  0  0  0  0
   16.6368   34.5316   37.1418 H   0  0  0  0  0  0  0  0  0  0  0  0
  1  2  2  0
  1  3  1  0
  3  4  1  0
  4  5  1  0
  6  1  1  0
  7  6  1  0
  6  8  1  0
  8  9  1  0
  9 10  1  0
  9 11  2  0
 10 12  1  0
 12 13  1  0
 13 14  2  0
 15 13  1  0
 14 16  1  0
 14 17  1  0
 18 15  2  0
 16 19  1  0
 16 20  2  0
 17 21  2  0
 21 18  1  0
  4 22  2  0
  4 23  1  0
 24 23  1  0
 24 25  1  0
 25 26  1  0
 25 27  1  0
 26 28  1  0
 27 29  1  0
 27 30  1  0
 30 28  1  0
 28 31  1  0
 30 32  1  0
 33 31  1  0
 34 31  1  0
 35 33  2  0
 33 36  1  0
 37 34  2  0
 38 35  1  0
 36 39  2  0
 36 37  1  0
 40 38  2  0
 40 39  1  0
 39 41  1  0
  6 42  1  6
  7 43  1  0
  7 44  1  0
  8 45  1  0
  8 46  1  0
 12 47  1  0
 12 48  1  0
 15 49  1  0
 17 50  1  0
 18 51  1  0
 21 52  1  0
 24 53  1  0
 24 54  1  0
 25 55  1  0
 27 56  1  0
 28 57  1  0
 29 58  1  0
 30 59  1  0
 32 60  1  0
 34 61  1  0
 38 62  1  0
 41 63  1  0
 41 64  1  0
M  CHG  3   5  -1  16   1  19  -1
M  END
>  <EmbedRMS>  (650) 
0.0870655493671541

$$$$

     RDKit          3D

 64 67  0  0  0  0  0  0  0  0999 V2000
   10.2859   43.7720   33.8046 C   0  0  0  0  0  0  0  0  0  0  0  0
   11.4085   43.5885   34.3610 O   0  0  0  0  0  0  0  0  0  0  0  0
    9.3674   42.7309   33.6992 O   0  0  0  0  0  0  0  0  0  0  0  0
    9.8853   41.2341   34.2839 P   0  0  0  0  0  5  0  0  0  0  0  0
   10.3659   41.4701   35.8743 O   0  0  0  0  0  1  0  0  0  0  0  0
    9.9529   45.1149   33.2535 C   0  0  2  0  0  0  0  0  0  0  0  0
   11.0715   46.0330   33.4765 N   0  0  0  0  0  0  0  0  0  0  0  0
    8.6601   45.6656   33.8896 C   0  0  0  0  0  0  0  0  0  0  0  0
    8.7905   45.8542   35.3721 C   0  0  0  0  0  0  0  0  0  0  0  0
    9.4499   46.9831   35.8649 O   0  0  0  0  0  0  0  0  0  0  0  0
    8.3395   44.9773   36.1588 O   0  0  0  0  0  0  0  0  0  0  0  0
    9.6607   47.2069   37.2565 C   0  0  0  0  0  0  0  0  0  0  0  0
   10.4633   48.4679   37.4852 C   0  0  0  0  0  0  0  0  0  0  0  0
   10.3364   49.2234   38.6824 C   0  0  0  0  0  0  0  0  0  0  0  0
   11.3855   48.8902   36.5065 C   0  0  0  0  0  0  0  0  0  0  0  0
    9.4943   48.7943   39.7667 N   0  0  0  0  0  4  0  0  0  0  0  0
   11.0627   50.4193   38.8205 C   0  0  0  0  0  0  0  0  0  0  0  0
   12.1118   50.0700   36.6730 C   0  0  0  0  0  0  0  0  0  0  0  0
    8.8922   49.7276   40.5790 O   0  0  0  0  0  1  0  0  0  0  0  0
    9.4611   47.5932   40.1050 O   0  0  0  0  0  0  0  0  0  0  0  0
   11.9416   50.8393   37.8218 C   0  0  0  0  0  0  0  0  0  0  0  0
    8.8077   40.1913   34.2086 O   0  0  0  0  0  0  0  0  0  0  0  0
   11.2370   40.7898   33.3680 O   0  0  0  0  0  0  0  0  0  0  0  0
   10.9154   40.6881   31.9949 C   0  0  0  0  0  0  0  0  0  0  0  0
   11.5261   39.3871   31.4365 C   0  0  0  0  0  0  0  0  0  0  0  0
   12.7492   39.0893   32.0819 O   0  0  0  0  0  0  0  0  0  0  0  0
   10.6123   38.1893   31.6461 C   0  0  0  0  0  0  0  0  0  0  0  0
   12.9373   37.6827   32.0301 C   0  0  0  0  0  0  0  0  0  0  0  0
    9.6150   38.0838   30.6538 O   0  0  0  0  0  0  0  0  0  0  0  0
   11.5793   37.0136   31.7014 C   0  0  0  0  0  0  0  0  0  0  0  0
   13.4906   37.2169   33.3242 N   0  0  0  0  0  0  0  0  0  0  0  0
   11.6216   36.3252   30.4725 O   0  0  0  0  0  0  0  0  0  0  0  0
   14.4763   36.3266   33.5731 C   0  0  0  0  0  0  0  0  0  0  0  0
   13.1181   37.6308   34.5694 C   0  0  0  0  0  0  0  0  0  0  0  0
   15.2065   35.6137   32.6740 N   0  0  0  0  0  0  0  0  0  0  0  0
   14.6736   36.2270   34.9185 C   0  0  0  0  0  0  0  0  0  0  0  0
   13.8229   37.0451   35.5787 N   0  0  0  0  0  0  0  0  0  0  0  0
   16.1639   34.7593   33.1547 C   0  0  0  0  0  0  0  0  0  0  0  0
   15.6519   35.3489   35.4132 C   0  0  0  0  0  0  0  0  0  0  0  0
   16.3795   34.6308   34.5042 N   0  0  0  0  0  0  0  0  0  0  0  0
   15.9006   35.1931   36.8090 N   0  0  0  0  0  0  0  0  0  0  0  0
    9.7829   45.0057   32.1587 H   0  0  0  0  0  0  0  0  0  0  0  0
   10.8101   46.9724   33.0974 H   0  0  0  0  0  0  0  0  0  0  0  0
   11.8823   45.7132   32.8969 H   0  0  0  0  0  0  0  0  0  0  0  0
    8.4087   46.6436   33.4258 H   0  0  0  0  0  0  0  0  0  0  0  0
    7.8125   44.9788   33.6727 H   0  0  0  0  0  0  0  0  0  0  0  0
   10.2130   46.3471   37.6934 H   0  0  0  0  0  0  0  0  0  0  0  0
    8.6655   47.2909   37.7430 H   0  0  0  0  0  0  0  0  0  0  0  0
   11.5397   48.3128   35.6036 H   0  0  0  0  0  0  0  0  0  0  0  0
   10.9697   51.0155   39.7194 H   0  0  0  0  0  0  0  0  0  0  0  0
   12.8069   50.3895   35.9072 H   0  0  0  0  0  0  0  0  0  0  0  0
   12.5042   51.7556   37.9466 H   0  0  0  0  0  0  0  0  0  0  0  0
    9.8252   40.7180   31.7580 H   0  0  0  0  0  0  0  0  0  0  0  0
   11.3827   41.5503   31.4728 H   0  0  0  0  0  0  0  0  0  0  0  0
   11.7291   39.5287   30.3504 H   0  0  0  0  0  0  0  0  0  0  0  0
   10.1139   38.2718   32.6380 H   0  0  0  0  0  0  0  0  0  0  0  0
   13.6726   37.4636   31.2240 H   0  0  0  0  0  0  0  0  0  0  0  0
   10.0536   38.1085   29.7639 H   0  0  0  0  0  0  0  0  0  0  0  0
   11.2646   36.3134   32.5107 H   0  0  0  0  0  0  0  0  0  0  0  0
   12.1549   35.5032   30.6316 H   0  0  0  0  0  0  0  0  0  0  0  0
   12.3362   38.3586   34.7450 H   0  0  0  0  0  0  0  0  0  0  0  0
   16.7573   34.1788   32.4619 H   0  0  0  0  0  0  0  0  0  0  0  0
   16.6366   34.5314   37.1415 H   0  0  0  0  0  0  0  0  0  0  0  0
   15.3533   35.7353   37.5139 H   0  0  0  0  0  0  0  0  0  0  0  0
  1  2  2  0
  1  3  1  0
  3  4  1  0
  4  5  1  0
  6  1  1  0
  7  6  1  0
  6  8  1  0
  8  9  1  0
  9 10  1  0
  9 11  2  0
 10 12  1  0
 12 13  1  0
 13 14  2  0
 15 13  1  0
 14 16  1  0
 14 17  1  0
 18 15  2  0
 16 19  1  0
 16 20  2  0
 17 21  2  0
 21 18  1  0
  4 22  2  0
  4 23  1  0
 24 23  1  0
 24 25  1  0
 25 26  1  0
 25 27  1  0
 26 28  1  0
 27 29  1  0
 27 30  1  0
 30 28  1  0
 28 31  1  0
 30 32  1  0
 33 31  1  0
 34 31  1  0
 35 33  2  0
 33 36  1  0
 37 34  2  0
 38 35  1  0
 36 39  2  0
 36 37  1  0
 40 38  2  0
 40 39  1  0
 39 41  1  0
  6 42  1  6
  7 43  1  0
  7 44  1  0
  8 45  1  0
  8 46  1  0
 12 47  1  0
 12 48  1  0
 15 49  1  0
 17 50  1  0
 18 51  1  0
 21 52  1  0
 24 53  1  0
 24 54  1  0
 25 55  1  0
 27 56  1  0
 28 57  1  0
 29 58  1  0
 30 59  1  0
 32 60  1  0
 34 61  1  0
 38 62  1  0
 41 63  1  0
 41 64  1  0
M  CHG  3   5  -1  16   1  19  -1
M  END
>  <EmbedRMS>  (651) 
0.0879244498423166

$$$$

     RDKit          3D

 64 67  0  0  0  0  0  0  0  0999 V2000
   10.2858   43.7714   33.8042 C   0  0  0  0  0  0  0  0  0  0  0  0
   11.4113   43.5868   34.3538 O   0  0  0  0  0  0  0  0  0  0  0  0
    9.3664   42.7312   33.7005 O   0  0  0  0  0  0  0  0  0  0  0  0
    9.8850   41.2345   34.2847 P   0  0  0  0  0  5  0  0  0  0  0  0
   10.3658   41.4711   35.8750 O   0  0  0  0  0  1  0  0  0  0  0  0
    9.9579   45.1108   33.2448 C   0  0  2  0  0  0  0  0  0  0  0  0
   11.0669   46.0361   33.4876 N   0  0  0  0  0  0  0  0  0  0  0  0
    8.6104   45.6655   33.7743 C   0  0  0  0  0  0  0  0  0  0  0  0
    8.3789   45.4418   35.2451 C   0  0  0  0  0  0  0  0  0  0  0  0
    9.3737   45.7639   36.1719 O   0  0  0  0  0  0  0  0  0  0  0  0
    7.2708   44.9818   35.6346 O   0  0  0  0  0  0  0  0  0  0  0  0
    9.2193   45.5536   37.5731 C   0  0  0  0  0  0  0  0  0  0  0  0
   10.4986   45.8849   38.3058 C   0  0  0  0  0  0  0  0  0  0  0  0
   10.4892   46.4195   39.6211 C   0  0  0  0  0  0  0  0  0  0  0  0
   11.7351   45.6258   37.6827 C   0  0  0  0  0  0  0  0  0  0  0  0
    9.2656   46.5936   40.3559 N   0  0  0  0  0  4  0  0  0  0  0  0
   11.7085   46.7659   40.2312 C   0  0  0  0  0  0  0  0  0  0  0  0
   12.9348   45.9584   38.3130 C   0  0  0  0  0  0  0  0  0  0  0  0
    8.3077   45.6058   40.3507 O   0  0  0  0  0  1  0  0  0  0  0  0
    9.1473   47.5419   41.1593 O   0  0  0  0  0  0  0  0  0  0  0  0
   12.9211   46.5394   39.5792 C   0  0  0  0  0  0  0  0  0  0  0  0
    8.8077   40.1915   34.2095 O   0  0  0  0  0  0  0  0  0  0  0  0
   11.2369   40.7900   33.3688 O   0  0  0  0  0  0  0  0  0  0  0  0
   10.9158   40.6890   31.9955 C   0  0  0  0  0  0  0  0  0  0  0  0
   11.5250   39.3874   31.4367 C   0  0  0  0  0  0  0  0  0  0  0  0
   12.7485   39.0880   32.0804 O   0  0  0  0  0  0  0  0  0  0  0  0
   10.6100   38.1910   31.6471 C   0  0  0  0  0  0  0  0  0  0  0  0
   12.9348   37.6808   32.0293 C   0  0  0  0  0  0  0  0  0  0  0  0
    9.6126   38.0875   30.6547 O   0  0  0  0  0  0  0  0  0  0  0  0
   11.5767   37.0134   31.7026 C   0  0  0  0  0  0  0  0  0  0  0  0
   13.4901   37.2165   33.3236 N   0  0  0  0  0  0  0  0  0  0  0  0
   11.6322   36.3231   30.4741 O   0  0  0  0  0  0  0  0  0  0  0  0
   14.4762   36.3266   33.5728 C   0  0  0  0  0  0  0  0  0  0  0  0
   13.1179   37.6307   34.5689 C   0  0  0  0  0  0  0  0  0  0  0  0
   15.2065   35.6135   32.6738 N   0  0  0  0  0  0  0  0  0  0  0  0
   14.6736   36.2272   34.9182 C   0  0  0  0  0  0  0  0  0  0  0  0
   13.8228   37.0453   35.5783 N   0  0  0  0  0  0  0  0  0  0  0  0
   16.1640   34.7593   33.1547 C   0  0  0  0  0  0  0  0  0  0  0  0
   15.6518   35.3491   35.4131 C   0  0  0  0  0  0  0  0  0  0  0  0
   16.3795   34.6309   34.5042 N   0  0  0  0  0  0  0  0  0  0  0  0
   15.9004   35.1933   36.8089 N   0  0  0  0  0  0  0  0  0  0  0  0
    9.8603   44.9840   32.1438 H   0  0  0  0  0  0  0  0  0  0  0  0
   10.8957   46.9127   32.9430 H   0  0  0  0  0  0  0  0  0  0  0  0
   11.1036   46.3033   34.4964 H   0  0  0  0  0  0  0  0  0  0  0  0
    8.5394   46.7537   33.5627 H   0  0  0  0  0  0  0  0  0  0  0  0
    7.7875   45.1754   33.2080 H   0  0  0  0  0  0  0  0  0  0  0  0
    8.3884   46.2017   37.9233 H   0  0  0  0  0  0  0  0  0  0  0  0
    8.9628   44.4897   37.7668 H   0  0  0  0  0  0  0  0  0  0  0  0
   11.7748   45.1728   36.7006 H   0  0  0  0  0  0  0  0  0  0  0  0
   11.7211   47.1862   41.2290 H   0  0  0  0  0  0  0  0  0  0  0  0
   13.8775   45.7665   37.8168 H   0  0  0  0  0  0  0  0  0  0  0  0
   13.8531   46.7989   40.0648 H   0  0  0  0  0  0  0  0  0  0  0  0
    9.8257   40.7204   31.7583 H   0  0  0  0  0  0  0  0  0  0  0  0
   11.3843   41.5508   31.4739 H   0  0  0  0  0  0  0  0  0  0  0  0
   11.7271   39.5289   30.3504 H   0  0  0  0  0  0  0  0  0  0  0  0
   10.1121   38.2731   32.6391 H   0  0  0  0  0  0  0  0  0  0  0  0
   13.6685   37.4593   31.2225 H   0  0  0  0  0  0  0  0  0  0  0  0
   10.0515   38.1111   29.7648 H   0  0  0  0  0  0  0  0  0  0  0  0
   11.2801   36.3129   32.5195 H   0  0  0  0  0  0  0  0  0  0  0  0
   10.8625   35.6961   30.4645 H   0  0  0  0  0  0  0  0  0  0  0  0
   12.3356   38.3581   34.7445 H   0  0  0  0  0  0  0  0  0  0  0  0
   16.7574   34.1788   32.4619 H   0  0  0  0  0  0  0  0  0  0  0  0
   15.3532   35.7356   37.5138 H   0  0  0  0  0  0  0  0  0  0  0  0
   16.6364   34.5315   37.1415 H   0  0  0  0  0  0  0  0  0  0  0  0
  1  2  2  0
  1  3  1  0
  3  4  1  0
  4  5  1  0
  6  1  1  0
  7  6  1  0
  6  8  1  0
  8  9  1  0
  9 10  1  0
  9 11  2  0
 10 12  1  0
 12 13  1  0
 13 14  2  0
 15 13  1  0
 14 16  1  0
 14 17  1  0
 18 15  2  0
 16 19  1  0
 16 20  2  0
 17 21  2  0
 21 18  1  0
  4 22  2  0
  4 23  1  0
 24 23  1  0
 24 25  1  0
 25 26  1  0
 25 27  1  0
 26 28  1  0
 27 29  1  0
 27 30  1  0
 30 28  1  0
 28 31  1  0
 30 32  1  0
 33 31  1  0
 34 31  1  0
 35 33  2  0
 33 36  1  0
 37 34  2  0
 38 35  1  0
 36 39  2  0
 36 37  1  0
 40 38  2  0
 40 39  1  0
 39 41  1  0
  6 42  1  6
  7 43  1  0
  7 44  1  0
  8 45  1  0
  8 46  1  0
 12 47  1  0
 12 48  1  0
 15 49  1  0
 17 50  1  0
 18 51  1  0
 21 52  1  0
 24 53  1  0
 24 54  1  0
 25 55  1  0
 27 56  1  0
 28 57  1  0
 29 58  1  0
 30 59  1  0
 32 60  1  0
 34 61  1  0
 38 62  1  0
 41 63  1  0
 41 64  1  0
M  CHG  3   5  -1  16   1  19  -1
M  END
>  <EmbedRMS>  (652) 
0.08787763493698877

$$$$

     RDKit          3D

 64 67  0  0  0  0  0  0  0  0999 V2000
   10.2823   43.7752   33.8088 C   0  0  0  0  0  0  0  0  0  0  0  0
   11.4053   43.5919   34.3647 O   0  0  0  0  0  0  0  0  0  0  0  0
    9.3714   42.7284   33.6945 O   0  0  0  0  0  0  0  0  0  0  0  0
    9.8865   41.2335   34.2838 P   0  0  0  0  0  5  0  0  0  0  0  0
   10.3654   41.4710   35.8744 O   0  0  0  0  0  1  0  0  0  0  0  0
    9.9443   45.1227   33.2628 C   0  0  2  0  0  0  0  0  0  0  0  0
   11.0791   46.0246   33.4670 N   0  0  0  0  0  0  0  0  0  0  0  0
    8.6958   45.7028   33.9610 C   0  0  0  0  0  0  0  0  0  0  0  0
    7.4521   44.9408   33.6180 C   0  0  0  0  0  0  0  0  0  0  0  0
    6.9185   44.0408   34.5490 O   0  0  0  0  0  0  0  0  0  0  0  0
    6.9136   45.0966   32.4881 O   0  0  0  0  0  0  0  0  0  0  0  0
    5.8027   43.1929   34.2738 C   0  0  0  0  0  0  0  0  0  0  0  0
    4.4688   43.8384   34.6023 C   0  0  0  0  0  0  0  0  0  0  0  0
    3.2769   43.0607   34.6430 C   0  0  0  0  0  0  0  0  0  0  0  0
    4.3905   45.2160   34.9005 C   0  0  0  0  0  0  0  0  0  0  0  0
    3.2719   41.6519   34.3436 N   0  0  0  0  0  4  0  0  0  0  0  0
    2.0656   43.6752   35.0069 C   0  0  0  0  0  0  0  0  0  0  0  0
    3.1735   45.8058   35.2432 C   0  0  0  0  0  0  0  0  0  0  0  0
    2.3517   40.8258   34.9473 O   0  0  0  0  0  1  0  0  0  0  0  0
    3.9738   41.1914   33.4204 O   0  0  0  0  0  0  0  0  0  0  0  0
    2.0148   45.0371   35.3001 C   0  0  0  0  0  0  0  0  0  0  0  0
    8.8077   40.1919   34.2082 O   0  0  0  0  0  0  0  0  0  0  0  0
   11.2378   40.7884   33.3691 O   0  0  0  0  0  0  0  0  0  0  0  0
   10.9163   40.6894   31.9960 C   0  0  0  0  0  0  0  0  0  0  0  0
   11.5273   39.3896   31.4370 C   0  0  0  0  0  0  0  0  0  0  0  0
   12.7511   39.0913   32.0834 O   0  0  0  0  0  0  0  0  0  0  0  0
   10.6123   38.1915   31.6451 C   0  0  0  0  0  0  0  0  0  0  0  0
   12.9429   37.6850   32.0294 C   0  0  0  0  0  0  0  0  0  0  0  0
    9.6069   38.0858   30.6603 O   0  0  0  0  0  0  0  0  0  0  0  0
   11.5844   37.0185   31.6879 C   0  0  0  0  0  0  0  0  0  0  0  0
   13.4899   37.2162   33.3249 N   0  0  0  0  0  0  0  0  0  0  0  0
   11.6200   36.3061   30.4692 O   0  0  0  0  0  0  0  0  0  0  0  0
   14.4759   36.3263   33.5738 C   0  0  0  0  0  0  0  0  0  0  0  0
   13.1175   37.6307   34.5698 C   0  0  0  0  0  0  0  0  0  0  0  0
   15.2065   35.6138   32.6746 N   0  0  0  0  0  0  0  0  0  0  0  0
   14.6731   36.2267   34.9191 C   0  0  0  0  0  0  0  0  0  0  0  0
   13.8224   37.0450   35.5792 N   0  0  0  0  0  0  0  0  0  0  0  0
   16.1640   34.7595   33.1551 C   0  0  0  0  0  0  0  0  0  0  0  0
   15.6517   35.3489   35.4136 C   0  0  0  0  0  0  0  0  0  0  0  0
   16.3795   34.6310   34.5046 N   0  0  0  0  0  0  0  0  0  0  0  0
   15.9006   35.1931   36.8094 N   0  0  0  0  0  0  0  0  0  0  0  0
    9.7470   45.0264   32.1708 H   0  0  0  0  0  0  0  0  0  0  0  0
   11.8810   45.6832   32.8870 H   0  0  0  0  0  0  0  0  0  0  0  0
   10.8347   46.9621   33.0722 H   0  0  0  0  0  0  0  0  0  0  0  0
    8.8419   45.7015   35.0636 H   0  0  0  0  0  0  0  0  0  0  0  0
    8.5479   46.7590   33.6475 H   0  0  0  0  0  0  0  0  0  0  0  0
    5.8231   42.8776   33.2085 H   0  0  0  0  0  0  0  0  0  0  0  0
    5.9171   42.2828   34.8997 H   0  0  0  0  0  0  0  0  0  0  0  0
    5.2672   45.8472   34.8861 H   0  0  0  0  0  0  0  0  0  0  0  0
    1.1499   43.0991   35.0478 H   0  0  0  0  0  0  0  0  0  0  0  0
    3.1309   46.8629   35.4724 H   0  0  0  0  0  0  0  0  0  0  0  0
    1.0733   45.4976   35.5705 H   0  0  0  0  0  0  0  0  0  0  0  0
    9.8263   40.7192   31.7585 H   0  0  0  0  0  0  0  0  0  0  0  0
   11.3839   41.5523   31.4754 H   0  0  0  0  0  0  0  0  0  0  0  0
   11.7319   39.5337   30.3516 H   0  0  0  0  0  0  0  0  0  0  0  0
   10.1216   38.2683   32.6412 H   0  0  0  0  0  0  0  0  0  0  0  0
   13.6882   37.4702   31.2318 H   0  0  0  0  0  0  0  0  0  0  0  0
   10.0255   38.1750   29.7656 H   0  0  0  0  0  0  0  0  0  0  0  0
   11.2794   36.3123   32.4915 H   0  0  0  0  0  0  0  0  0  0  0  0
   11.9870   36.9098   29.7714 H   0  0  0  0  0  0  0  0  0  0  0  0
   12.3365   38.3595   34.7452 H   0  0  0  0  0  0  0  0  0  0  0  0
   16.7577   34.1794   32.4622 H   0  0  0  0  0  0  0  0  0  0  0  0
   15.3532   35.7351   37.5144 H   0  0  0  0  0  0  0  0  0  0  0  0
   16.6368   34.5316   37.1418 H   0  0  0  0  0  0  0  0  0  0  0  0
  1  2  2  0
  1  3  1  0
  3  4  1  0
  4  5  1  0
  6  1  1  0
  7  6  1  0
  6  8  1  0
  8  9  1  0
  9 10  1  0
  9 11  2  0
 10 12  1  0
 12 13  1  0
 13 14  2  0
 15 13  1  0
 14 16  1  0
 14 17  1  0
 18 15  2  0
 16 19  1  0
 16 20  2  0
 17 21  2  0
 21 18  1  0
  4 22  2  0
  4 23  1  0
 24 23  1  0
 24 25  1  0
 25 26  1  0
 25 27  1  0
 26 28  1  0
 27 29  1  0
 27 30  1  0
 30 28  1  0
 28 31  1  0
 30 32  1  0
 33 31  1  0
 34 31  1  0
 35 33  2  0
 33 36  1  0
 37 34  2  0
 38 35  1  0
 36 39  2  0
 36 37  1  0
 40 38  2  0
 40 39  1  0
 39 41  1  0
  6 42  1  6
  7 43  1  0
  7 44  1  0
  8 45  1  0
  8 46  1  0
 12 47  1  0
 12 48  1  0
 15 49  1  0
 17 50  1  0
 18 51  1  0
 21 52  1  0
 24 53  1  0
 24 54  1  0
 25 55  1  0
 27 56  1  0
 28 57  1  0
 29 58  1  0
 30 59  1  0
 32 60  1  0
 34 61  1  0
 38 62  1  0
 41 63  1  0
 41 64  1  0
M  CHG  3   5  -1  16   1  19  -1
M  END
>  <EmbedRMS>  (653) 
0.08757069787529725

$$$$

     RDKit          3D

 64 67  0  0  0  0  0  0  0  0999 V2000
   10.2861   43.7719   33.8042 C   0  0  0  0  0  0  0  0  0  0  0  0
   11.4086   43.5883   34.3607 O   0  0  0  0  0  0  0  0  0  0  0  0
    9.3673   42.7310   33.6993 O   0  0  0  0  0  0  0  0  0  0  0  0
    9.8850   41.2344   34.2845 P   0  0  0  0  0  5  0  0  0  0  0  0
   10.3654   41.4705   35.8749 O   0  0  0  0  0  1  0  0  0  0  0  0
    9.9527   45.1150   33.2539 C   0  0  2  0  0  0  0  0  0  0  0  0
   11.0713   46.0332   33.4767 N   0  0  0  0  0  0  0  0  0  0  0  0
    8.6609   45.6659   33.8912 C   0  0  0  0  0  0  0  0  0  0  0  0
    8.7949   45.8606   35.3723 C   0  0  0  0  0  0  0  0  0  0  0  0
    9.3479   47.0486   35.8625 O   0  0  0  0  0  0  0  0  0  0  0  0
    8.4416   44.9401   36.1584 O   0  0  0  0  0  0  0  0  0  0  0  0
    9.5500   47.3091   37.2507 C   0  0  0  0  0  0  0  0  0  0  0  0
    8.2281   47.4815   37.9648 C   0  0  0  0  0  0  0  0  0  0  0  0
    7.8955   46.7775   39.1529 C   0  0  0  0  0  0  0  0  0  0  0  0
    7.3367   48.4524   37.4731 C   0  0  0  0  0  0  0  0  0  0  0  0
    8.7539   45.7694   39.7069 N   0  0  0  0  0  4  0  0  0  0  0  0
    6.6933   47.0769   39.8157 C   0  0  0  0  0  0  0  0  0  0  0  0
    6.1381   48.7216   38.1353 C   0  0  0  0  0  0  0  0  0  0  0  0
    8.9303   45.7020   41.0696 O   0  0  0  0  0  1  0  0  0  0  0  0
    9.1196   44.8044   39.0053 O   0  0  0  0  0  0  0  0  0  0  0  0
    5.8187   48.0378   39.3067 C   0  0  0  0  0  0  0  0  0  0  0  0
    8.8076   40.1914   34.2088 O   0  0  0  0  0  0  0  0  0  0  0  0
   11.2368   40.7902   33.3691 O   0  0  0  0  0  0  0  0  0  0  0  0
   10.9155   40.6897   31.9960 C   0  0  0  0  0  0  0  0  0  0  0  0
   11.5270   39.3898   31.4374 C   0  0  0  0  0  0  0  0  0  0  0  0
   12.7508   39.0916   32.0838 O   0  0  0  0  0  0  0  0  0  0  0  0
   10.6122   38.1916   31.6452 C   0  0  0  0  0  0  0  0  0  0  0  0
   12.9429   37.6852   32.0295 C   0  0  0  0  0  0  0  0  0  0  0  0
    9.6070   38.0858   30.6603 O   0  0  0  0  0  0  0  0  0  0  0  0
   11.5845   37.0186   31.6879 C   0  0  0  0  0  0  0  0  0  0  0  0
   13.4899   37.2163   33.3250 N   0  0  0  0  0  0  0  0  0  0  0  0
   11.6201   36.3062   30.4693 O   0  0  0  0  0  0  0  0  0  0  0  0
   14.4759   36.3263   33.5739 C   0  0  0  0  0  0  0  0  0  0  0  0
   13.1176   37.6307   34.5699 C   0  0  0  0  0  0  0  0  0  0  0  0
   15.2065   35.6139   32.6746 N   0  0  0  0  0  0  0  0  0  0  0  0
   14.6731   36.2267   34.9191 C   0  0  0  0  0  0  0  0  0  0  0  0
   13.8224   37.0450   35.5792 N   0  0  0  0  0  0  0  0  0  0  0  0
   16.1640   34.7596   33.1551 C   0  0  0  0  0  0  0  0  0  0  0  0
   15.6517   35.3489   35.4136 C   0  0  0  0  0  0  0  0  0  0  0  0
   16.3795   34.6310   34.5046 N   0  0  0  0  0  0  0  0  0  0  0  0
   15.9006   35.1931   36.8094 N   0  0  0  0  0  0  0  0  0  0  0  0
    9.7820   45.0062   32.1592 H   0  0  0  0  0  0  0  0  0  0  0  0
   10.8100   46.9718   33.0955 H   0  0  0  0  0  0  0  0  0  0  0  0
   11.8823   45.7125   32.8978 H   0  0  0  0  0  0  0  0  0  0  0  0
    7.8138   44.9764   33.6814 H   0  0  0  0  0  0  0  0  0  0  0  0
    8.4053   46.6409   33.4230 H   0  0  0  0  0  0  0  0  0  0  0  0
   10.1203   48.2569   37.3471 H   0  0  0  0  0  0  0  0  0  0  0  0
   10.1889   46.5172   37.6861 H   0  0  0  0  0  0  0  0  0  0  0  0
    7.5778   49.0125   36.5777 H   0  0  0  0  0  0  0  0  0  0  0  0
    6.4257   46.5504   40.7233 H   0  0  0  0  0  0  0  0  0  0  0  0
    5.4609   49.4702   37.7448 H   0  0  0  0  0  0  0  0  0  0  0  0
    4.8915   48.2525   39.8222 H   0  0  0  0  0  0  0  0  0  0  0  0
   11.3826   41.5526   31.4748 H   0  0  0  0  0  0  0  0  0  0  0  0
    9.8254   40.7190   31.7587 H   0  0  0  0  0  0  0  0  0  0  0  0
   11.7318   39.5338   30.3520 H   0  0  0  0  0  0  0  0  0  0  0  0
   10.1214   38.2682   32.6413 H   0  0  0  0  0  0  0  0  0  0  0  0
   13.6882   37.4708   31.2319 H   0  0  0  0  0  0  0  0  0  0  0  0
   10.0257   38.1751   29.7656 H   0  0  0  0  0  0  0  0  0  0  0  0
   11.2796   36.3123   32.4915 H   0  0  0  0  0  0  0  0  0  0  0  0
   11.9872   36.9099   29.7714 H   0  0  0  0  0  0  0  0  0  0  0  0
   12.3365   38.3595   34.7453 H   0  0  0  0  0  0  0  0  0  0  0  0
   16.7577   34.1794   32.4622 H   0  0  0  0  0  0  0  0  0  0  0  0
   16.6368   34.5316   37.1418 H   0  0  0  0  0  0  0  0  0  0  0  0
   15.3532   35.7351   37.5143 H   0  0  0  0  0  0  0  0  0  0  0  0
  1  2  2  0
  1  3  1  0
  3  4  1  0
  4  5  1  0
  6  1  1  0
  7  6  1  0
  6  8  1  0
  8  9  1  0
  9 10  1  0
  9 11  2  0
 10 12  1  0
 12 13  1  0
 13 14  2  0
 15 13  1  0
 14 16  1  0
 14 17  1  0
 18 15  2  0
 16 19  1  0
 16 20  2  0
 17 21  2  0
 21 18  1  0
  4 22  2  0
  4 23  1  0
 24 23  1  0
 24 25  1  0
 25 26  1  0
 25 27  1  0
 26 28  1  0
 27 29  1  0
 27 30  1  0
 30 28  1  0
 28 31  1  0
 30 32  1  0
 33 31  1  0
 34 31  1  0
 35 33  2  0
 33 36  1  0
 37 34  2  0
 38 35  1  0
 36 39  2  0
 36 37  1  0
 40 38  2  0
 40 39  1  0
 39 41  1  0
  6 42  1  6
  7 43  1  0
  7 44  1  0
  8 45  1  0
  8 46  1  0
 12 47  1  0
 12 48  1  0
 15 49  1  0
 17 50  1  0
 18 51  1  0
 21 52  1  0
 24 53  1  0
 24 54  1  0
 25 55  1  0
 27 56  1  0
 28 57  1  0
 29 58  1  0
 30 59  1  0
 32 60  1  0
 34 61  1  0
 38 62  1  0
 41 63  1  0
 41 64  1  0
M  CHG  3   5  -1  16   1  19  -1
M  END
>  <EmbedRMS>  (654) 
0.08700774955267561

$$$$

     RDKit          3D

 64 67  0  0  0  0  0  0  0  0999 V2000
   10.2870   43.7696   33.8114 C   0  0  0  0  0  0  0  0  0  0  0  0
   11.4131   43.5780   34.3557 O   0  0  0  0  0  0  0  0  0  0  0  0
    9.3662   42.7309   33.7047 O   0  0  0  0  0  0  0  0  0  0  0  0
    9.8844   41.2324   34.2845 P   0  0  0  0  0  5  0  0  0  0  0  0
   10.3643   41.4653   35.8752 O   0  0  0  0  0  1  0  0  0  0  0  0
    9.9683   45.1086   33.2399 C   0  0  2  0  0  0  0  0  0  0  0  0
   11.0589   46.0572   33.4804 N   0  0  0  0  0  0  0  0  0  0  0  0
    8.6299   45.6633   33.7666 C   0  0  0  0  0  0  0  0  0  0  0  0
    8.6590   46.0308   35.2233 C   0  0  0  0  0  0  0  0  0  0  0  0
    9.0269   45.0774   36.1811 O   0  0  0  0  0  0  0  0  0  0  0  0
    8.3157   47.1924   35.5754 O   0  0  0  0  0  0  0  0  0  0  0  0
    8.9906   45.3288   37.5855 C   0  0  0  0  0  0  0  0  0  0  0  0
   10.0375   46.3468   37.9826 C   0  0  0  0  0  0  0  0  0  0  0  0
   11.4271   46.1449   37.7519 C   0  0  0  0  0  0  0  0  0  0  0  0
    9.6063   47.5618   38.5480 C   0  0  0  0  0  0  0  0  0  0  0  0
   11.9448   44.9229   37.1938 N   0  0  0  0  0  4  0  0  0  0  0  0
   12.3287   47.1775   38.0681 C   0  0  0  0  0  0  0  0  0  0  0  0
   10.5211   48.5650   38.8678 C   0  0  0  0  0  0  0  0  0  0  0  0
   13.1258   44.9382   36.4874 O   0  0  0  0  0  1  0  0  0  0  0  0
   11.4434   43.8207   37.4932 O   0  0  0  0  0  0  0  0  0  0  0  0
   11.8788   48.3752   38.6240 C   0  0  0  0  0  0  0  0  0  0  0  0
    8.8068   40.1899   34.2070 O   0  0  0  0  0  0  0  0  0  0  0  0
   11.2376   40.7901   33.3690 O   0  0  0  0  0  0  0  0  0  0  0  0
   10.9190   40.6896   31.9952 C   0  0  0  0  0  0  0  0  0  0  0  0
   11.5169   39.3803   31.4399 C   0  0  0  0  0  0  0  0  0  0  0  0
   12.7477   39.0863   32.0735 O   0  0  0  0  0  0  0  0  0  0  0  0
   10.6030   38.1891   31.6667 C   0  0  0  0  0  0  0  0  0  0  0  0
   12.9335   37.6798   32.0280 C   0  0  0  0  0  0  0  0  0  0  0  0
    9.6397   38.0777   30.6456 O   0  0  0  0  0  0  0  0  0  0  0  0
   11.5739   37.0155   31.7057 C   0  0  0  0  0  0  0  0  0  0  0  0
   13.4903   37.2179   33.3231 N   0  0  0  0  0  0  0  0  0  0  0  0
   11.6211   36.3377   30.4695 O   0  0  0  0  0  0  0  0  0  0  0  0
   14.4761   36.3273   33.5725 C   0  0  0  0  0  0  0  0  0  0  0  0
   13.1179   37.6317   34.5684 C   0  0  0  0  0  0  0  0  0  0  0  0
   15.2063   35.6139   32.6737 N   0  0  0  0  0  0  0  0  0  0  0  0
   14.6733   36.2278   34.9180 C   0  0  0  0  0  0  0  0  0  0  0  0
   13.8226   37.0459   35.5779 N   0  0  0  0  0  0  0  0  0  0  0  0
   16.1636   34.7595   33.1546 C   0  0  0  0  0  0  0  0  0  0  0  0
   15.6515   35.3494   35.4129 C   0  0  0  0  0  0  0  0  0  0  0  0
   16.3791   34.6311   34.5041 N   0  0  0  0  0  0  0  0  0  0  0  0
   15.9001   35.1936   36.8088 N   0  0  0  0  0  0  0  0  0  0  0  0
    9.8608   44.9763   32.1407 H   0  0  0  0  0  0  0  0  0  0  0  0
   11.9183   45.7280   32.9821 H   0  0  0  0  0  0  0  0  0  0  0  0
   11.2784   46.1125   34.5021 H   0  0  0  0  0  0  0  0  0  0  0  0
    7.8206   44.9196   33.6028 H   0  0  0  0  0  0  0  0  0  0  0  0
    8.3654   46.5633   33.1688 H   0  0  0  0  0  0  0  0  0  0  0  0
    7.9680   45.6648   37.8656 H   0  0  0  0  0  0  0  0  0  0  0  0
    9.1583   44.3814   38.1357 H   0  0  0  0  0  0  0  0  0  0  0  0
    8.5541   47.7421   38.7306 H   0  0  0  0  0  0  0  0  0  0  0  0
   13.3902   47.0493   37.8990 H   0  0  0  0  0  0  0  0  0  0  0  0
   10.1745   49.4956   39.2987 H   0  0  0  0  0  0  0  0  0  0  0  0
   12.5861   49.1571   38.8690 H   0  0  0  0  0  0  0  0  0  0  0  0
   11.4009   41.5439   31.4735 H   0  0  0  0  0  0  0  0  0  0  0  0
    9.8312   40.7399   31.7549 H   0  0  0  0  0  0  0  0  0  0  0  0
   11.6981   39.5046   30.3473 H   0  0  0  0  0  0  0  0  0  0  0  0
   10.1088   38.2631   32.6649 H   0  0  0  0  0  0  0  0  0  0  0  0
   13.6655   37.4543   31.2207 H   0  0  0  0  0  0  0  0  0  0  0  0
    8.8965   38.6900   30.8851 H   0  0  0  0  0  0  0  0  0  0  0  0
   11.2846   36.3061   32.5175 H   0  0  0  0  0  0  0  0  0  0  0  0
   10.8524   35.7095   30.4590 H   0  0  0  0  0  0  0  0  0  0  0  0
   12.3354   38.3589   34.7440 H   0  0  0  0  0  0  0  0  0  0  0  0
   16.7570   34.1788   32.4619 H   0  0  0  0  0  0  0  0  0  0  0  0
   16.6360   34.5317   37.1413 H   0  0  0  0  0  0  0  0  0  0  0  0
   15.3529   35.7359   37.5136 H   0  0  0  0  0  0  0  0  0  0  0  0
  1  2  2  0
  1  3  1  0
  3  4  1  0
  4  5  1  0
  6  1  1  0
  7  6  1  0
  6  8  1  0
  8  9  1  0
  9 10  1  0
  9 11  2  0
 10 12  1  0
 12 13  1  0
 13 14  2  0
 15 13  1  0
 14 16  1  0
 14 17  1  0
 18 15  2  0
 16 19  1  0
 16 20  2  0
 17 21  2  0
 21 18  1  0
  4 22  2  0
  4 23  1  0
 24 23  1  0
 24 25  1  0
 25 26  1  0
 25 27  1  0
 26 28  1  0
 27 29  1  0
 27 30  1  0
 30 28  1  0
 28 31  1  0
 30 32  1  0
 33 31  1  0
 34 31  1  0
 35 33  2  0
 33 36  1  0
 37 34  2  0
 38 35  1  0
 36 39  2  0
 36 37  1  0
 40 38  2  0
 40 39  1  0
 39 41  1  0
  6 42  1  6
  7 43  1  0
  7 44  1  0
  8 45  1  0
  8 46  1  0
 12 47  1  0
 12 48  1  0
 15 49  1  0
 17 50  1  0
 18 51  1  0
 21 52  1  0
 24 53  1  0
 24 54  1  0
 25 55  1  0
 27 56  1  0
 28 57  1  0
 29 58  1  0
 30 59  1  0
 32 60  1  0
 34 61  1  0
 38 62  1  0
 41 63  1  0
 41 64  1  0
M  CHG  3   5  -1  16   1  19  -1
M  END
>  <EmbedRMS>  (655) 
0.09023499777679544

$$$$

     RDKit          3D

 64 67  0  0  0  0  0  0  0  0999 V2000
   10.2830   43.7759   33.8113 C   0  0  0  0  0  0  0  0  0  0  0  0
   11.4049   43.5940   34.3695 O   0  0  0  0  0  0  0  0  0  0  0  0
    9.3715   42.7289   33.7046 O   0  0  0  0  0  0  0  0  0  0  0  0
    9.8878   41.2324   34.2850 P   0  0  0  0  0  5  0  0  0  0  0  0
   10.3683   41.4664   35.8755 O   0  0  0  0  0  1  0  0  0  0  0  0
    9.9632   45.1118   33.2232 C   0  0  2  0  0  0  0  0  0  0  0  0
   11.0673   46.0347   33.4917 N   0  0  0  0  0  0  0  0  0  0  0  0
    8.6469   45.6853   33.7989 C   0  0  0  0  0  0  0  0  0  0  0  0
    7.4354   44.8861   33.4077 C   0  0  0  0  0  0  0  0  0  0  0  0
    7.4665   44.0938   32.2566 O   0  0  0  0  0  0  0  0  0  0  0  0
    6.3935   44.9475   34.1151 O   0  0  0  0  0  0  0  0  0  0  0  0
    6.4658   43.1321   31.9380 C   0  0  0  0  0  0  0  0  0  0  0  0
    6.9737   42.1806   30.8779 C   0  0  0  0  0  0  0  0  0  0  0  0
    6.5354   40.8315   30.8179 C   0  0  0  0  0  0  0  0  0  0  0  0
    7.9104   42.6370   29.9286 C   0  0  0  0  0  0  0  0  0  0  0  0
    5.5164   40.3297   31.6998 N   0  0  0  0  0  4  0  0  0  0  0  0
    7.1020   39.9660   29.8650 C   0  0  0  0  0  0  0  0  0  0  0  0
    8.4506   41.7648   28.9831 C   0  0  0  0  0  0  0  0  0  0  0  0
    4.3962   41.0828   31.9666 O   0  0  0  0  0  1  0  0  0  0  0  0
    5.5477   39.1414   32.0812 O   0  0  0  0  0  0  0  0  0  0  0  0
    8.0541   40.4301   28.9572 C   0  0  0  0  0  0  0  0  0  0  0  0
    8.8081   40.1917   34.2073 O   0  0  0  0  0  0  0  0  0  0  0  0
   11.2374   40.7907   33.3657 O   0  0  0  0  0  0  0  0  0  0  0  0
   10.9112   40.6871   31.9938 C   0  0  0  0  0  0  0  0  0  0  0  0
   11.5239   39.3869   31.4354 C   0  0  0  0  0  0  0  0  0  0  0  0
   12.7476   39.0901   32.0809 O   0  0  0  0  0  0  0  0  0  0  0  0
   10.6116   38.1884   31.6461 C   0  0  0  0  0  0  0  0  0  0  0  0
   12.9369   37.6834   32.0298 C   0  0  0  0  0  0  0  0  0  0  0  0
    9.6152   38.0801   30.6541 O   0  0  0  0  0  0  0  0  0  0  0  0
   11.5794   37.0135   31.7016 C   0  0  0  0  0  0  0  0  0  0  0  0
   13.4908   37.2178   33.3240 N   0  0  0  0  0  0  0  0  0  0  0  0
   11.6220   36.3249   30.4729 O   0  0  0  0  0  0  0  0  0  0  0  0
   14.4762   36.3271   33.5729 C   0  0  0  0  0  0  0  0  0  0  0  0
   13.1181   37.6313   34.5693 C   0  0  0  0  0  0  0  0  0  0  0  0
   15.2064   35.6140   32.6739 N   0  0  0  0  0  0  0  0  0  0  0  0
   14.6734   36.2272   34.9183 C   0  0  0  0  0  0  0  0  0  0  0  0
   13.8227   37.0453   35.5786 N   0  0  0  0  0  0  0  0  0  0  0  0
   16.1637   34.7594   33.1546 C   0  0  0  0  0  0  0  0  0  0  0  0
   15.6517   35.3490   35.4130 C   0  0  0  0  0  0  0  0  0  0  0  0
   16.3792   34.6309   34.5041 N   0  0  0  0  0  0  0  0  0  0  0  0
   15.9004   35.1932   36.8089 N   0  0  0  0  0  0  0  0  0  0  0  0
    9.8611   44.9941   32.1204 H   0  0  0  0  0  0  0  0  0  0  0  0
   10.8316   46.9662   33.0780 H   0  0  0  0  0  0  0  0  0  0  0  0
   11.9103   45.7058   32.9652 H   0  0  0  0  0  0  0  0  0  0  0  0
    8.7172   45.7340   34.9080 H   0  0  0  0  0  0  0  0  0  0  0  0
    8.4991   46.7203   33.4230 H   0  0  0  0  0  0  0  0  0  0  0  0
    6.2229   42.5657   32.8628 H   0  0  0  0  0  0  0  0  0  0  0  0
    5.5543   43.6499   31.5715 H   0  0  0  0  0  0  0  0  0  0  0  0
    8.2404   43.6682   29.9268 H   0  0  0  0  0  0  0  0  0  0  0  0
    6.7886   38.9310   29.8111 H   0  0  0  0  0  0  0  0  0  0  0  0
    9.1818   42.1247   28.2708 H   0  0  0  0  0  0  0  0  0  0  0  0
    8.4770   39.7550   28.2244 H   0  0  0  0  0  0  0  0  0  0  0  0
    9.8199   40.7133   31.7605 H   0  0  0  0  0  0  0  0  0  0  0  0
   11.3728   41.5505   31.4686 H   0  0  0  0  0  0  0  0  0  0  0  0
   11.7258   39.5287   30.3491 H   0  0  0  0  0  0  0  0  0  0  0  0
   10.1127   38.2712   32.6375 H   0  0  0  0  0  0  0  0  0  0  0  0
   13.6721   37.4645   31.2236 H   0  0  0  0  0  0  0  0  0  0  0  0
   10.0536   38.1057   29.7641 H   0  0  0  0  0  0  0  0  0  0  0  0
   11.2651   36.3134   32.5112 H   0  0  0  0  0  0  0  0  0  0  0  0
   12.1554   35.5030   30.6322 H   0  0  0  0  0  0  0  0  0  0  0  0
   12.3361   38.3590   34.7449 H   0  0  0  0  0  0  0  0  0  0  0  0
   16.7571   34.1790   32.4617 H   0  0  0  0  0  0  0  0  0  0  0  0
   15.3532   35.7354   37.5138 H   0  0  0  0  0  0  0  0  0  0  0  0
   16.6364   34.5314   37.1413 H   0  0  0  0  0  0  0  0  0  0  0  0
  1  2  2  0
  1  3  1  0
  3  4  1  0
  4  5  1  0
  6  1  1  0
  7  6  1  0
  6  8  1  0
  8  9  1  0
  9 10  1  0
  9 11  2  0
 10 12  1  0
 12 13  1  0
 13 14  2  0
 15 13  1  0
 14 16  1  0
 14 17  1  0
 18 15  2  0
 16 19  1  0
 16 20  2  0
 17 21  2  0
 21 18  1  0
  4 22  2  0
  4 23  1  0
 24 23  1  0
 24 25  1  0
 25 26  1  0
 25 27  1  0
 26 28  1  0
 27 29  1  0
 27 30  1  0
 30 28  1  0
 28 31  1  0
 30 32  1  0
 33 31  1  0
 34 31  1  0
 35 33  2  0
 33 36  1  0
 37 34  2  0
 38 35  1  0
 36 39  2  0
 36 37  1  0
 40 38  2  0
 40 39  1  0
 39 41  1  0
  6 42  1  6
  7 43  1  0
  7 44  1  0
  8 45  1  0
  8 46  1  0
 12 47  1  0
 12 48  1  0
 15 49  1  0
 17 50  1  0
 18 51  1  0
 21 52  1  0
 24 53  1  0
 24 54  1  0
 25 55  1  0
 27 56  1  0
 28 57  1  0
 29 58  1  0
 30 59  1  0
 32 60  1  0
 34 61  1  0
 38 62  1  0
 41 63  1  0
 41 64  1  0
M  CHG  3   5  -1  16   1  19  -1
M  END
>  <EmbedRMS>  (656) 
0.0884030533031387

$$$$

     RDKit          3D

 64 67  0  0  0  0  0  0  0  0999 V2000
   10.2866   43.7711   33.8023 C   0  0  0  0  0  0  0  0  0  0  0  0
   11.4099   43.5865   34.3571 O   0  0  0  0  0  0  0  0  0  0  0  0
    9.3667   42.7310   33.7001 O   0  0  0  0  0  0  0  0  0  0  0  0
    9.8847   41.2345   34.2854 P   0  0  0  0  0  5  0  0  0  0  0  0
   10.3664   41.4702   35.8754 O   0  0  0  0  0  1  0  0  0  0  0  0
    9.9574   45.1130   33.2461 C   0  0  2  0  0  0  0  0  0  0  0  0
   11.0669   46.0375   33.4854 N   0  0  0  0  0  0  0  0  0  0  0  0
    8.6443   45.6636   33.8449 C   0  0  0  0  0  0  0  0  0  0  0  0
    8.7271   45.9964   35.3099 C   0  0  0  0  0  0  0  0  0  0  0  0
    9.5923   45.2858   36.1508 O   0  0  0  0  0  0  0  0  0  0  0  0
    7.9589   46.8770   35.7843 O   0  0  0  0  0  0  0  0  0  0  0  0
    9.5825   45.4101   37.5720 C   0  0  0  0  0  0  0  0  0  0  0  0
    8.3640   44.7454   38.1783 C   0  0  0  0  0  0  0  0  0  0  0  0
    7.7907   45.2050   39.3942 C   0  0  0  0  0  0  0  0  0  0  0  0
    7.7992   43.6240   37.5383 C   0  0  0  0  0  0  0  0  0  0  0  0
    8.3788   46.2742   40.1549 N   0  0  0  0  0  4  0  0  0  0  0  0
    6.6229   44.5903   39.8787 C   0  0  0  0  0  0  0  0  0  0  0  0
    6.6516   43.0153   38.0473 C   0  0  0  0  0  0  0  0  0  0  0  0
    7.5760   47.1127   40.8936 O   0  0  0  0  0  1  0  0  0  0  0  0
    9.6150   46.3258   40.3205 O   0  0  0  0  0  0  0  0  0  0  0  0
    6.0575   43.5051   39.2083 C   0  0  0  0  0  0  0  0  0  0  0  0
    8.8072   40.1916   34.2100 O   0  0  0  0  0  0  0  0  0  0  0  0
   11.2363   40.7901   33.3695 O   0  0  0  0  0  0  0  0  0  0  0  0
   10.9150   40.6897   31.9965 C   0  0  0  0  0  0  0  0  0  0  0  0
   11.5268   39.3899   31.4376 C   0  0  0  0  0  0  0  0  0  0  0  0
   12.7506   39.0917   32.0840 O   0  0  0  0  0  0  0  0  0  0  0  0
   10.6121   38.1915   31.6453 C   0  0  0  0  0  0  0  0  0  0  0  0
   12.9428   37.6854   32.0295 C   0  0  0  0  0  0  0  0  0  0  0  0
    9.6069   38.0858   30.6603 O   0  0  0  0  0  0  0  0  0  0  0  0
   11.5845   37.0186   31.6880 C   0  0  0  0  0  0  0  0  0  0  0  0
   13.4899   37.2164   33.3250 N   0  0  0  0  0  0  0  0  0  0  0  0
   11.6202   36.3063   30.4693 O   0  0  0  0  0  0  0  0  0  0  0  0
   14.4758   36.3263   33.5738 C   0  0  0  0  0  0  0  0  0  0  0  0
   13.1175   37.6308   34.5699 C   0  0  0  0  0  0  0  0  0  0  0  0
   15.2065   35.6139   32.6746 N   0  0  0  0  0  0  0  0  0  0  0  0
   14.6731   36.2267   34.9191 C   0  0  0  0  0  0  0  0  0  0  0  0
   13.8224   37.0450   35.5792 N   0  0  0  0  0  0  0  0  0  0  0  0
   16.1640   34.7596   33.1551 C   0  0  0  0  0  0  0  0  0  0  0  0
   15.6517   35.3489   35.4136 C   0  0  0  0  0  0  0  0  0  0  0  0
   16.3795   34.6310   34.5046 N   0  0  0  0  0  0  0  0  0  0  0  0
   15.9006   35.1931   36.8094 N   0  0  0  0  0  0  0  0  0  0  0  0
    9.8120   44.9963   32.1484 H   0  0  0  0  0  0  0  0  0  0  0  0
   11.8881   45.7226   32.9178 H   0  0  0  0  0  0  0  0  0  0  0  0
   10.8045   46.9749   33.1021 H   0  0  0  0  0  0  0  0  0  0  0  0
    8.3595   46.5816   33.2857 H   0  0  0  0  0  0  0  0  0  0  0  0
    7.8250   44.9279   33.6946 H   0  0  0  0  0  0  0  0  0  0  0  0
    9.6269   46.4892   37.8314 H   0  0  0  0  0  0  0  0  0  0  0  0
   10.4908   44.9170   37.9764 H   0  0  0  0  0  0  0  0  0  0  0  0
    8.2370   43.2246   36.6323 H   0  0  0  0  0  0  0  0  0  0  0  0
    6.1638   44.9348   40.7967 H   0  0  0  0  0  0  0  0  0  0  0  0
    6.2202   42.1636   37.5374 H   0  0  0  0  0  0  0  0  0  0  0  0
    5.1653   43.0331   39.5991 H   0  0  0  0  0  0  0  0  0  0  0  0
    9.8249   40.7188   31.7594 H   0  0  0  0  0  0  0  0  0  0  0  0
   11.3819   41.5528   31.4753 H   0  0  0  0  0  0  0  0  0  0  0  0
   11.7315   39.5341   30.3522 H   0  0  0  0  0  0  0  0  0  0  0  0
   10.1213   38.2681   32.6413 H   0  0  0  0  0  0  0  0  0  0  0  0
   13.6882   37.4710   31.2319 H   0  0  0  0  0  0  0  0  0  0  0  0
   10.0256   38.1752   29.7657 H   0  0  0  0  0  0  0  0  0  0  0  0
   11.2796   36.3123   32.4915 H   0  0  0  0  0  0  0  0  0  0  0  0
   11.9872   36.9100   29.7714 H   0  0  0  0  0  0  0  0  0  0  0  0
   12.3365   38.3596   34.7453 H   0  0  0  0  0  0  0  0  0  0  0  0
   16.7577   34.1795   32.4622 H   0  0  0  0  0  0  0  0  0  0  0  0
   16.6368   34.5316   37.1418 H   0  0  0  0  0  0  0  0  0  0  0  0
   15.3532   35.7351   37.5143 H   0  0  0  0  0  0  0  0  0  0  0  0
  1  2  2  0
  1  3  1  0
  3  4  1  0
  4  5  1  0
  6  1  1  0
  7  6  1  0
  6  8  1  0
  8  9  1  0
  9 10  1  0
  9 11  2  0
 10 12  1  0
 12 13  1  0
 13 14  2  0
 15 13  1  0
 14 16  1  0
 14 17  1  0
 18 15  2  0
 16 19  1  0
 16 20  2  0
 17 21  2  0
 21 18  1  0
  4 22  2  0
  4 23  1  0
 24 23  1  0
 24 25  1  0
 25 26  1  0
 25 27  1  0
 26 28  1  0
 27 29  1  0
 27 30  1  0
 30 28  1  0
 28 31  1  0
 30 32  1  0
 33 31  1  0
 34 31  1  0
 35 33  2  0
 33 36  1  0
 37 34  2  0
 38 35  1  0
 36 39  2  0
 36 37  1  0
 40 38  2  0
 40 39  1  0
 39 41  1  0
  6 42  1  6
  7 43  1  0
  7 44  1  0
  8 45  1  0
  8 46  1  0
 12 47  1  0
 12 48  1  0
 15 49  1  0
 17 50  1  0
 18 51  1  0
 21 52  1  0
 24 53  1  0
 24 54  1  0
 25 55  1  0
 27 56  1  0
 28 57  1  0
 29 58  1  0
 30 59  1  0
 32 60  1  0
 34 61  1  0
 38 62  1  0
 41 63  1  0
 41 64  1  0
M  CHG  3   5  -1  16   1  19  -1
M  END
>  <EmbedRMS>  (657) 
0.08693891352599308

$$$$

     RDKit          3D

 64 67  0  0  0  0  0  0  0  0999 V2000
   10.2866   43.7699   33.8113 C   0  0  0  0  0  0  0  0  0  0  0  0
   11.4141   43.5782   34.3539 O   0  0  0  0  0  0  0  0  0  0  0  0
    9.3653   42.7315   33.7063 O   0  0  0  0  0  0  0  0  0  0  0  0
    9.8839   41.2329   34.2858 P   0  0  0  0  0  5  0  0  0  0  0  0
   10.3646   41.4647   35.8763 O   0  0  0  0  0  1  0  0  0  0  0  0
    9.9703   45.1073   33.2340 C   0  0  2  0  0  0  0  0  0  0  0  0
   11.0571   46.0574   33.4855 N   0  0  0  0  0  0  0  0  0  0  0  0
    8.6273   45.6612   33.7465 C   0  0  0  0  0  0  0  0  0  0  0  0
    8.6248   45.9288   35.2226 C   0  0  0  0  0  0  0  0  0  0  0  0
    8.4070   44.8748   36.1181 O   0  0  0  0  0  0  0  0  0  0  0  0
    8.8327   47.0991   35.6454 O   0  0  0  0  0  0  0  0  0  0  0  0
    8.3356   45.0577   37.5326 C   0  0  0  0  0  0  0  0  0  0  0  0
    9.6859   45.4280   38.1088 C   0  0  0  0  0  0  0  0  0  0  0  0
    9.8325   46.4046   39.1295 C   0  0  0  0  0  0  0  0  0  0  0  0
   10.8320   44.7768   37.6181 C   0  0  0  0  0  0  0  0  0  0  0  0
    8.6976   47.0224   39.7574 N   0  0  0  0  0  4  0  0  0  0  0  0
   11.1228   46.7651   39.5550 C   0  0  0  0  0  0  0  0  0  0  0  0
   12.1037   45.1341   38.0668 C   0  0  0  0  0  0  0  0  0  0  0  0
    8.7735   48.3319   40.1728 O   0  0  0  0  0  1  0  0  0  0  0  0
    7.7331   46.3262   40.1358 O   0  0  0  0  0  0  0  0  0  0  0  0
   12.2498   46.1360   39.0241 C   0  0  0  0  0  0  0  0  0  0  0  0
    8.8067   40.1901   34.2077 O   0  0  0  0  0  0  0  0  0  0  0  0
   11.2370   40.7911   33.3701 O   0  0  0  0  0  0  0  0  0  0  0  0
   10.9179   40.6907   31.9966 C   0  0  0  0  0  0  0  0  0  0  0  0
   11.5171   39.3826   31.4415 C   0  0  0  0  0  0  0  0  0  0  0  0
   12.7491   39.0895   32.0759 O   0  0  0  0  0  0  0  0  0  0  0  0
   10.6034   38.1900   31.6660 C   0  0  0  0  0  0  0  0  0  0  0  0
   12.9400   37.6836   32.0277 C   0  0  0  0  0  0  0  0  0  0  0  0
    9.6376   38.0785   30.6474 O   0  0  0  0  0  0  0  0  0  0  0  0
   11.5803   37.0205   31.6937 C   0  0  0  0  0  0  0  0  0  0  0  0
   13.4901   37.2178   33.3237 N   0  0  0  0  0  0  0  0  0  0  0  0
   11.6118   36.3194   30.4680 O   0  0  0  0  0  0  0  0  0  0  0  0
   14.4758   36.3272   33.5731 C   0  0  0  0  0  0  0  0  0  0  0  0
   13.1176   37.6318   34.5688 C   0  0  0  0  0  0  0  0  0  0  0  0
   15.2064   35.6142   32.6742 N   0  0  0  0  0  0  0  0  0  0  0  0
   14.6729   36.2274   34.9184 C   0  0  0  0  0  0  0  0  0  0  0  0
   13.8221   37.0458   35.5784 N   0  0  0  0  0  0  0  0  0  0  0  0
   16.1636   34.7597   33.1549 C   0  0  0  0  0  0  0  0  0  0  0  0
   15.6514   35.3493   35.4133 C   0  0  0  0  0  0  0  0  0  0  0  0
   16.3791   34.6312   34.5043 N   0  0  0  0  0  0  0  0  0  0  0  0
   15.9001   35.1935   36.8091 N   0  0  0  0  0  0  0  0  0  0  0  0
    9.8741   44.9755   32.1337 H   0  0  0  0  0  0  0  0  0  0  0  0
   11.2727   46.1042   34.5088 H   0  0  0  0  0  0  0  0  0  0  0  0
   11.9191   45.7343   32.9878 H   0  0  0  0  0  0  0  0  0  0  0  0
    7.8111   44.9450   33.5093 H   0  0  0  0  0  0  0  0  0  0  0  0
    8.3963   46.6039   33.2037 H   0  0  0  0  0  0  0  0  0  0  0  0
    7.5693   45.8327   37.7397 H   0  0  0  0  0  0  0  0  0  0  0  0
    8.0000   44.1080   37.9986 H   0  0  0  0  0  0  0  0  0  0  0  0
   10.7413   43.9982   36.8742 H   0  0  0  0  0  0  0  0  0  0  0  0
   11.2551   47.5169   40.3228 H   0  0  0  0  0  0  0  0  0  0  0  0
   12.9777   44.6353   37.6680 H   0  0  0  0  0  0  0  0  0  0  0  0
   13.2374   46.4143   39.3687 H   0  0  0  0  0  0  0  0  0  0  0  0
    9.8301   40.7397   31.7566 H   0  0  0  0  0  0  0  0  0  0  0  0
   11.3986   41.5458   31.4750 H   0  0  0  0  0  0  0  0  0  0  0  0
   11.6986   39.5096   30.3493 H   0  0  0  0  0  0  0  0  0  0  0  0
   10.1128   38.2587   32.6664 H   0  0  0  0  0  0  0  0  0  0  0  0
   13.6800   37.4632   31.2266 H   0  0  0  0  0  0  0  0  0  0  0  0
    8.8951   38.6907   30.8891 H   0  0  0  0  0  0  0  0  0  0  0  0
   11.2831   36.3061   32.4929 H   0  0  0  0  0  0  0  0  0  0  0  0
   11.8859   36.9591   29.7593 H   0  0  0  0  0  0  0  0  0  0  0  0
   12.3361   38.3601   34.7442 H   0  0  0  0  0  0  0  0  0  0  0  0
   16.7572   34.1793   32.4621 H   0  0  0  0  0  0  0  0  0  0  0  0
   16.6362   34.5318   37.1415 H   0  0  0  0  0  0  0  0  0  0  0  0
   15.3528   35.7357   37.5140 H   0  0  0  0  0  0  0  0  0  0  0  0
  1  2  2  0
  1  3  1  0
  3  4  1  0
  4  5  1  0
  6  1  1  0
  7  6  1  0
  6  8  1  0
  8  9  1  0
  9 10  1  0
  9 11  2  0
 10 12  1  0
 12 13  1  0
 13 14  2  0
 15 13  1  0
 14 16  1  0
 14 17  1  0
 18 15  2  0
 16 19  1  0
 16 20  2  0
 17 21  2  0
 21 18  1  0
  4 22  2  0
  4 23  1  0
 24 23  1  0
 24 25  1  0
 25 26  1  0
 25 27  1  0
 26 28  1  0
 27 29  1  0
 27 30  1  0
 30 28  1  0
 28 31  1  0
 30 32  1  0
 33 31  1  0
 34 31  1  0
 35 33  2  0
 33 36  1  0
 37 34  2  0
 38 35  1  0
 36 39  2  0
 36 37  1  0
 40 38  2  0
 40 39  1  0
 39 41  1  0
  6 42  1  6
  7 43  1  0
  7 44  1  0
  8 45  1  0
  8 46  1  0
 12 47  1  0
 12 48  1  0
 15 49  1  0
 17 50  1  0
 18 51  1  0
 21 52  1  0
 24 53  1  0
 24 54  1  0
 25 55  1  0
 27 56  1  0
 28 57  1  0
 29 58  1  0
 30 59  1  0
 32 60  1  0
 34 61  1  0
 38 62  1  0
 41 63  1  0
 41 64  1  0
M  CHG  3   5  -1  16   1  19  -1
M  END
>  <EmbedRMS>  (658) 
0.08912631046013526

$$$$

     RDKit          3D

 64 67  0  0  0  0  0  0  0  0999 V2000
   10.2809   43.7759   33.8099 C   0  0  0  0  0  0  0  0  0  0  0  0
   11.4069   43.5917   34.3594 O   0  0  0  0  0  0  0  0  0  0  0  0
    9.3684   42.7299   33.6998 O   0  0  0  0  0  0  0  0  0  0  0  0
    9.8867   41.2338   34.2842 P   0  0  0  0  0  5  0  0  0  0  0  0
   10.3668   41.4696   35.8747 O   0  0  0  0  0  1  0  0  0  0  0  0
    9.9526   45.1157   33.2446 C   0  0  2  0  0  0  0  0  0  0  0  0
   11.0743   46.0262   33.4815 N   0  0  0  0  0  0  0  0  0  0  0  0
    8.6535   45.6904   33.8519 C   0  0  0  0  0  0  0  0  0  0  0  0
    7.4420   44.9257   33.4125 C   0  0  0  0  0  0  0  0  0  0  0  0
    7.0833   44.9212   32.0596 O   0  0  0  0  0  0  0  0  0  0  0  0
    6.7627   44.2852   34.2610 O   0  0  0  0  0  0  0  0  0  0  0  0
    5.9656   44.1931   31.5516 C   0  0  0  0  0  0  0  0  0  0  0  0
    4.6521   44.8100   31.9854 C   0  0  0  0  0  0  0  0  0  0  0  0
    3.4931   44.0199   32.2106 C   0  0  0  0  0  0  0  0  0  0  0  0
    4.5678   46.2069   32.1458 C   0  0  0  0  0  0  0  0  0  0  0  0
    3.4781   42.6045   31.9587 N   0  0  0  0  0  4  0  0  0  0  0  0
    2.3203   44.6379   32.6781 C   0  0  0  0  0  0  0  0  0  0  0  0
    3.3875   46.8034   32.5911 C   0  0  0  0  0  0  0  0  0  0  0  0
    2.6927   41.7790   32.7299 O   0  0  0  0  0  1  0  0  0  0  0  0
    3.9988   42.1429   30.9223 O   0  0  0  0  0  0  0  0  0  0  0  0
    2.2699   46.0191   32.8689 C   0  0  0  0  0  0  0  0  0  0  0  0
    8.8086   40.1914   34.2085 O   0  0  0  0  0  0  0  0  0  0  0  0
   11.2381   40.7899   33.3680 O   0  0  0  0  0  0  0  0  0  0  0  0
   10.9161   40.6889   31.9950 C   0  0  0  0  0  0  0  0  0  0  0  0
   11.5252   39.3872   31.4363 C   0  0  0  0  0  0  0  0  0  0  0  0
   12.7486   39.0879   32.0801 O   0  0  0  0  0  0  0  0  0  0  0  0
   10.6100   38.1910   31.6470 C   0  0  0  0  0  0  0  0  0  0  0  0
   12.9348   37.6807   32.0292 C   0  0  0  0  0  0  0  0  0  0  0  0
    9.6125   38.0875   30.6547 O   0  0  0  0  0  0  0  0  0  0  0  0
   11.5766   37.0133   31.7025 C   0  0  0  0  0  0  0  0  0  0  0  0
   13.4901   37.2165   33.3236 N   0  0  0  0  0  0  0  0  0  0  0  0
   11.6320   36.3231   30.4741 O   0  0  0  0  0  0  0  0  0  0  0  0
   14.4762   36.3266   33.5727 C   0  0  0  0  0  0  0  0  0  0  0  0
   13.1179   37.6307   34.5689 C   0  0  0  0  0  0  0  0  0  0  0  0
   15.2065   35.6135   32.6738 N   0  0  0  0  0  0  0  0  0  0  0  0
   14.6736   36.2272   34.9182 C   0  0  0  0  0  0  0  0  0  0  0  0
   13.8228   37.0453   35.5783 N   0  0  0  0  0  0  0  0  0  0  0  0
   16.1640   34.7593   33.1547 C   0  0  0  0  0  0  0  0  0  0  0  0
   15.6518   35.3491   35.4130 C   0  0  0  0  0  0  0  0  0  0  0  0
   16.3794   34.6309   34.5042 N   0  0  0  0  0  0  0  0  0  0  0  0
   15.9004   35.1933   36.8089 N   0  0  0  0  0  0  0  0  0  0  0  0
    9.8251   44.9992   32.1453 H   0  0  0  0  0  0  0  0  0  0  0  0
   11.1104   46.2833   34.4959 H   0  0  0  0  0  0  0  0  0  0  0  0
   10.9076   46.9084   32.9445 H   0  0  0  0  0  0  0  0  0  0  0  0
    8.5260   46.7436   33.5213 H   0  0  0  0  0  0  0  0  0  0  0  0
    8.7211   45.6936   34.9626 H   0  0  0  0  0  0  0  0  0  0  0  0
    6.0107   44.2008   30.4427 H   0  0  0  0  0  0  0  0  0  0  0  0
    6.0529   43.1406   31.8954 H   0  0  0  0  0  0  0  0  0  0  0  0
    5.4227   46.8390   31.9403 H   0  0  0  0  0  0  0  0  0  0  0  0
    1.4309   44.0505   32.8683 H   0  0  0  0  0  0  0  0  0  0  0  0
    3.3409   47.8765   32.7244 H   0  0  0  0  0  0  0  0  0  0  0  0
    1.3567   46.4841   33.2174 H   0  0  0  0  0  0  0  0  0  0  0  0
    9.8259   40.7204   31.7581 H   0  0  0  0  0  0  0  0  0  0  0  0
   11.3844   41.5506   31.4730 H   0  0  0  0  0  0  0  0  0  0  0  0
   11.7272   39.5286   30.3500 H   0  0  0  0  0  0  0  0  0  0  0  0
   10.1122   38.2733   32.6390 H   0  0  0  0  0  0  0  0  0  0  0  0
   13.6685   37.4590   31.2224 H   0  0  0  0  0  0  0  0  0  0  0  0
   10.0512   38.1111   29.7648 H   0  0  0  0  0  0  0  0  0  0  0  0
   11.2800   36.3129   32.5195 H   0  0  0  0  0  0  0  0  0  0  0  0
   10.8623   35.6961   30.4645 H   0  0  0  0  0  0  0  0  0  0  0  0
   12.3356   38.3581   34.7444 H   0  0  0  0  0  0  0  0  0  0  0  0
   16.7575   34.1787   32.4619 H   0  0  0  0  0  0  0  0  0  0  0  0
   16.6364   34.5315   37.1415 H   0  0  0  0  0  0  0  0  0  0  0  0
   15.3531   35.7355   37.5137 H   0  0  0  0  0  0  0  0  0  0  0  0
  1  2  2  0
  1  3  1  0
  3  4  1  0
  4  5  1  0
  6  1  1  0
  7  6  1  0
  6  8  1  0
  8  9  1  0
  9 10  1  0
  9 11  2  0
 10 12  1  0
 12 13  1  0
 13 14  2  0
 15 13  1  0
 14 16  1  0
 14 17  1  0
 18 15  2  0
 16 19  1  0
 16 20  2  0
 17 21  2  0
 21 18  1  0
  4 22  2  0
  4 23  1  0
 24 23  1  0
 24 25  1  0
 25 26  1  0
 25 27  1  0
 26 28  1  0
 27 29  1  0
 27 30  1  0
 30 28  1  0
 28 31  1  0
 30 32  1  0
 33 31  1  0
 34 31  1  0
 35 33  2  0
 33 36  1  0
 37 34  2  0
 38 35  1  0
 36 39  2  0
 36 37  1  0
 40 38  2  0
 40 39  1  0
 39 41  1  0
  6 42  1  6
  7 43  1  0
  7 44  1  0
  8 45  1  0
  8 46  1  0
 12 47  1  0
 12 48  1  0
 15 49  1  0
 17 50  1  0
 18 51  1  0
 21 52  1  0
 24 53  1  0
 24 54  1  0
 25 55  1  0
 27 56  1  0
 28 57  1  0
 29 58  1  0
 30 59  1  0
 32 60  1  0
 34 61  1  0
 38 62  1  0
 41 63  1  0
 41 64  1  0
M  CHG  3   5  -1  16   1  19  -1
M  END
>  <EmbedRMS>  (659) 
0.08809466527905883

$$$$

     RDKit          3D

 64 67  0  0  0  0  0  0  0  0999 V2000
   10.2829   43.7755   33.8080 C   0  0  0  0  0  0  0  0  0  0  0  0
   11.4086   43.5914   34.3579 O   0  0  0  0  0  0  0  0  0  0  0  0
    9.3666   42.7319   33.7017 O   0  0  0  0  0  0  0  0  0  0  0  0
    9.8860   41.2347   34.2846 P   0  0  0  0  0  5  0  0  0  0  0  0
   10.3662   41.4696   35.8751 O   0  0  0  0  0  1  0  0  0  0  0  0
    9.9540   45.1113   33.2427 C   0  0  2  0  0  0  0  0  0  0  0  0
   11.0722   46.0271   33.4849 N   0  0  0  0  0  0  0  0  0  0  0  0
    8.6397   45.6446   33.8511 C   0  0  0  0  0  0  0  0  0  0  0  0
    8.2244   46.9314   33.2088 C   0  0  0  0  0  0  0  0  0  0  0  0
    7.7568   46.9198   31.8921 O   0  0  0  0  0  0  0  0  0  0  0  0
    8.3276   48.0148   33.8465 O   0  0  0  0  0  0  0  0  0  0  0  0
    7.4021   48.1067   31.1917 C   0  0  0  0  0  0  0  0  0  0  0  0
    6.9972   47.7537   29.7846 C   0  0  0  0  0  0  0  0  0  0  0  0
    7.9484   47.5772   28.7431 C   0  0  0  0  0  0  0  0  0  0  0  0
    5.6294   47.5878   29.5023 C   0  0  0  0  0  0  0  0  0  0  0  0
    9.3652   47.6818   28.9751 N   0  0  0  0  0  4  0  0  0  0  0  0
    7.4925   47.2987   27.4421 C   0  0  0  0  0  0  0  0  0  0  0  0
    5.2003   47.2939   28.2074 C   0  0  0  0  0  0  0  0  0  0  0  0
   10.1969   48.1033   27.9631 O   0  0  0  0  0  1  0  0  0  0  0  0
    9.8757   47.2282   30.0196 O   0  0  0  0  0  0  0  0  0  0  0  0
    6.1294   47.1572   27.1780 C   0  0  0  0  0  0  0  0  0  0  0  0
    8.8089   40.1914   34.2081 O   0  0  0  0  0  0  0  0  0  0  0  0
   11.2385   40.7916   33.3692 O   0  0  0  0  0  0  0  0  0  0  0  0
   10.9187   40.6907   31.9959 C   0  0  0  0  0  0  0  0  0  0  0  0
   11.5174   39.3824   31.4412 C   0  0  0  0  0  0  0  0  0  0  0  0
   12.7494   39.0893   32.0756 O   0  0  0  0  0  0  0  0  0  0  0  0
   10.6036   38.1900   31.6659 C   0  0  0  0  0  0  0  0  0  0  0  0
   12.9400   37.6834   32.0276 C   0  0  0  0  0  0  0  0  0  0  0  0
    9.6376   38.0785   30.6474 O   0  0  0  0  0  0  0  0  0  0  0  0
   11.5803   37.0204   31.6937 C   0  0  0  0  0  0  0  0  0  0  0  0
   13.4902   37.2177   33.3237 N   0  0  0  0  0  0  0  0  0  0  0  0
   11.6117   36.3193   30.4680 O   0  0  0  0  0  0  0  0  0  0  0  0
   14.4759   36.3271   33.5731 C   0  0  0  0  0  0  0  0  0  0  0  0
   13.1176   37.6317   34.5688 C   0  0  0  0  0  0  0  0  0  0  0  0
   15.2064   35.6142   32.6742 N   0  0  0  0  0  0  0  0  0  0  0  0
   14.6729   36.2274   34.9184 C   0  0  0  0  0  0  0  0  0  0  0  0
   13.8221   37.0457   35.5783 N   0  0  0  0  0  0  0  0  0  0  0  0
   16.1637   34.7597   33.1549 C   0  0  0  0  0  0  0  0  0  0  0  0
   15.6514   35.3493   35.4133 C   0  0  0  0  0  0  0  0  0  0  0  0
   16.3791   34.6312   34.5044 N   0  0  0  0  0  0  0  0  0  0  0  0
   15.9001   35.1935   36.8091 N   0  0  0  0  0  0  0  0  0  0  0  0
    9.8238   44.9833   32.1448 H   0  0  0  0  0  0  0  0  0  0  0  0
   11.0783   46.3210   34.4895 H   0  0  0  0  0  0  0  0  0  0  0  0
   10.9383   46.8877   32.9061 H   0  0  0  0  0  0  0  0  0  0  0  0
    7.8247   44.9059   33.6904 H   0  0  0  0  0  0  0  0  0  0  0  0
    8.7536   45.7862   34.9488 H   0  0  0  0  0  0  0  0  0  0  0  0
    6.5658   48.6121   31.7232 H   0  0  0  0  0  0  0  0  0  0  0  0
    8.2561   48.8177   31.1801 H   0  0  0  0  0  0  0  0  0  0  0  0
    4.8895   47.6969   30.2859 H   0  0  0  0  0  0  0  0  0  0  0  0
    8.1975   47.1686   26.6309 H   0  0  0  0  0  0  0  0  0  0  0  0
    4.1442   47.1762   28.0013 H   0  0  0  0  0  0  0  0  0  0  0  0
    5.7936   46.9325   26.1738 H   0  0  0  0  0  0  0  0  0  0  0  0
   11.3991   41.5455   31.4737 H   0  0  0  0  0  0  0  0  0  0  0  0
    9.8307   40.7396   31.7563 H   0  0  0  0  0  0  0  0  0  0  0  0
   11.6989   39.5091   30.3489 H   0  0  0  0  0  0  0  0  0  0  0  0
   10.1130   38.2589   32.6664 H   0  0  0  0  0  0  0  0  0  0  0  0
   13.6800   37.4628   31.2265 H   0  0  0  0  0  0  0  0  0  0  0  0
    8.8953   38.6909   30.8891 H   0  0  0  0  0  0  0  0  0  0  0  0
   11.2830   36.3060   32.4929 H   0  0  0  0  0  0  0  0  0  0  0  0
   11.8859   36.9589   29.7593 H   0  0  0  0  0  0  0  0  0  0  0  0
   12.3360   38.3600   34.7442 H   0  0  0  0  0  0  0  0  0  0  0  0
   16.7572   34.1793   32.4621 H   0  0  0  0  0  0  0  0  0  0  0  0
   15.3528   35.7357   37.5140 H   0  0  0  0  0  0  0  0  0  0  0  0
   16.6362   34.5318   37.1416 H   0  0  0  0  0  0  0  0  0  0  0  0
  1  2  2  0
  1  3  1  0
  3  4  1  0
  4  5  1  0
  6  1  1  0
  7  6  1  0
  6  8  1  0
  8  9  1  0
  9 10  1  0
  9 11  2  0
 10 12  1  0
 12 13  1  0
 13 14  2  0
 15 13  1  0
 14 16  1  0
 14 17  1  0
 18 15  2  0
 16 19  1  0
 16 20  2  0
 17 21  2  0
 21 18  1  0
  4 22  2  0
  4 23  1  0
 24 23  1  0
 24 25  1  0
 25 26  1  0
 25 27  1  0
 26 28  1  0
 27 29  1  0
 27 30  1  0
 30 28  1  0
 28 31  1  0
 30 32  1  0
 33 31  1  0
 34 31  1  0
 35 33  2  0
 33 36  1  0
 37 34  2  0
 38 35  1  0
 36 39  2  0
 36 37  1  0
 40 38  2  0
 40 39  1  0
 39 41  1  0
  6 42  1  6
  7 43  1  0
  7 44  1  0
  8 45  1  0
  8 46  1  0
 12 47  1  0
 12 48  1  0
 15 49  1  0
 17 50  1  0
 18 51  1  0
 21 52  1  0
 24 53  1  0
 24 54  1  0
 25 55  1  0
 27 56  1  0
 28 57  1  0
 29 58  1  0
 30 59  1  0
 32 60  1  0
 34 61  1  0
 38 62  1  0
 41 63  1  0
 41 64  1  0
M  CHG  3   5  -1  16   1  19  -1
M  END
>  <EmbedRMS>  (660) 
0.0880197021540343

$$$$

     RDKit          3D

 64 67  0  0  0  0  0  0  0  0999 V2000
   10.2809   43.7767   33.8097 C   0  0  0  0  0  0  0  0  0  0  0  0
   11.4069   43.5930   34.3594 O   0  0  0  0  0  0  0  0  0  0  0  0
    9.3732   42.7277   33.6937 O   0  0  0  0  0  0  0  0  0  0  0  0
    9.8873   41.2330   34.2838 P   0  0  0  0  0  5  0  0  0  0  0  0
   10.3650   41.4710   35.8746 O   0  0  0  0  0  1  0  0  0  0  0  0
    9.9457   45.1213   33.2565 C   0  0  2  0  0  0  0  0  0  0  0  0
   11.0771   46.0245   33.4753 N   0  0  0  0  0  0  0  0  0  0  0  0
    8.6631   45.7033   33.8956 C   0  0  0  0  0  0  0  0  0  0  0  0
    7.4323   44.9786   33.4432 C   0  0  0  0  0  0  0  0  0  0  0  0
    6.9608   43.8992   34.1941 O   0  0  0  0  0  0  0  0  0  0  0  0
    6.8657   45.3118   32.3667 O   0  0  0  0  0  0  0  0  0  0  0  0
    5.9084   43.0451   33.7550 C   0  0  0  0  0  0  0  0  0  0  0  0
    5.8246   41.8120   34.6269 C   0  0  0  0  0  0  0  0  0  0  0  0
    5.3429   40.5747   34.1201 C   0  0  0  0  0  0  0  0  0  0  0  0
    6.2344   41.8844   35.9735 C   0  0  0  0  0  0  0  0  0  0  0  0
    4.8211   40.4519   32.7855 N   0  0  0  0  0  4  0  0  0  0  0  0
    5.3709   39.4365   34.9447 C   0  0  0  0  0  0  0  0  0  0  0  0
    6.2365   40.7461   36.7804 C   0  0  0  0  0  0  0  0  0  0  0  0
    4.9548   39.2651   32.1022 O   0  0  0  0  0  1  0  0  0  0  0  0
    4.0811   41.3384   32.3114 O   0  0  0  0  0  0  0  0  0  0  0  0
    5.8173   39.5223   36.2636 C   0  0  0  0  0  0  0  0  0  0  0  0
    8.8090   40.1910   34.2078 O   0  0  0  0  0  0  0  0  0  0  0  0
   11.2383   40.7877   33.3686 O   0  0  0  0  0  0  0  0  0  0  0  0
   10.9159   40.6876   31.9956 C   0  0  0  0  0  0  0  0  0  0  0  0
   11.5260   39.3869   31.4363 C   0  0  0  0  0  0  0  0  0  0  0  0
   12.7493   39.0890   32.0814 O   0  0  0  0  0  0  0  0  0  0  0  0
   10.6121   38.1893   31.6463 C   0  0  0  0  0  0  0  0  0  0  0  0
   12.9372   37.6824   32.0300 C   0  0  0  0  0  0  0  0  0  0  0  0
    9.6146   38.0839   30.6541 O   0  0  0  0  0  0  0  0  0  0  0  0
   11.5790   37.0135   31.7014 C   0  0  0  0  0  0  0  0  0  0  0  0
   13.4905   37.2169   33.3242 N   0  0  0  0  0  0  0  0  0  0  0  0
   11.6213   36.3252   30.4725 O   0  0  0  0  0  0  0  0  0  0  0  0
   14.4763   36.3266   33.5731 C   0  0  0  0  0  0  0  0  0  0  0  0
   13.1180   37.6308   34.5694 C   0  0  0  0  0  0  0  0  0  0  0  0
   15.2065   35.6137   32.6740 N   0  0  0  0  0  0  0  0  0  0  0  0
   14.6735   36.2270   34.9185 C   0  0  0  0  0  0  0  0  0  0  0  0
   13.8228   37.0451   35.5787 N   0  0  0  0  0  0  0  0  0  0  0  0
   16.1639   34.7593   33.1547 C   0  0  0  0  0  0  0  0  0  0  0  0
   15.6518   35.3489   35.4132 C   0  0  0  0  0  0  0  0  0  0  0  0
   16.3794   34.6308   34.5042 N   0  0  0  0  0  0  0  0  0  0  0  0
   15.9005   35.1931   36.8090 N   0  0  0  0  0  0  0  0  0  0  0  0
    9.7926   45.0116   32.1595 H   0  0  0  0  0  0  0  0  0  0  0  0
   11.1312   46.2816   34.4889 H   0  0  0  0  0  0  0  0  0  0  0  0
   10.9083   46.9076   32.9403 H   0  0  0  0  0  0  0  0  0  0  0  0
    8.5608   46.7744   33.6151 H   0  0  0  0  0  0  0  0  0  0  0  0
    8.7330   45.6558   35.0045 H   0  0  0  0  0  0  0  0  0  0  0  0
    4.9433   43.5935   33.7931 H   0  0  0  0  0  0  0  0  0  0  0  0
    6.1221   42.7461   32.7062 H   0  0  0  0  0  0  0  0  0  0  0  0
    6.5718   42.8200   36.4012 H   0  0  0  0  0  0  0  0  0  0  0  0
    5.0217   38.4819   34.5721 H   0  0  0  0  0  0  0  0  0  0  0  0
    6.5695   40.8126   37.8081 H   0  0  0  0  0  0  0  0  0  0  0  0
    5.8244   38.6401   36.8907 H   0  0  0  0  0  0  0  0  0  0  0  0
    9.8256   40.7178   31.7588 H   0  0  0  0  0  0  0  0  0  0  0  0
   11.3833   41.5501   31.4740 H   0  0  0  0  0  0  0  0  0  0  0  0
   11.7286   39.5288   30.3502 H   0  0  0  0  0  0  0  0  0  0  0  0
   10.1137   38.2719   32.6382 H   0  0  0  0  0  0  0  0  0  0  0  0
   13.6723   37.4630   31.2239 H   0  0  0  0  0  0  0  0  0  0  0  0
   10.0530   38.1086   29.7641 H   0  0  0  0  0  0  0  0  0  0  0  0
   11.2643   36.3134   32.5108 H   0  0  0  0  0  0  0  0  0  0  0  0
   12.1542   35.5029   30.6316 H   0  0  0  0  0  0  0  0  0  0  0  0
   12.3359   38.3584   34.7450 H   0  0  0  0  0  0  0  0  0  0  0  0
   16.7574   34.1789   32.4619 H   0  0  0  0  0  0  0  0  0  0  0  0
   16.6366   34.5314   37.1415 H   0  0  0  0  0  0  0  0  0  0  0  0
   15.3532   35.7353   37.5139 H   0  0  0  0  0  0  0  0  0  0  0  0
  1  2  2  0
  1  3  1  0
  3  4  1  0
  4  5  1  0
  6  1  1  0
  7  6  1  0
  6  8  1  0
  8  9  1  0
  9 10  1  0
  9 11  2  0
 10 12  1  0
 12 13  1  0
 13 14  2  0
 15 13  1  0
 14 16  1  0
 14 17  1  0
 18 15  2  0
 16 19  1  0
 16 20  2  0
 17 21  2  0
 21 18  1  0
  4 22  2  0
  4 23  1  0
 24 23  1  0
 24 25  1  0
 25 26  1  0
 25 27  1  0
 26 28  1  0
 27 29  1  0
 27 30  1  0
 30 28  1  0
 28 31  1  0
 30 32  1  0
 33 31  1  0
 34 31  1  0
 35 33  2  0
 33 36  1  0
 37 34  2  0
 38 35  1  0
 36 39  2  0
 36 37  1  0
 40 38  2  0
 40 39  1  0
 39 41  1  0
  6 42  1  6
  7 43  1  0
  7 44  1  0
  8 45  1  0
  8 46  1  0
 12 47  1  0
 12 48  1  0
 15 49  1  0
 17 50  1  0
 18 51  1  0
 21 52  1  0
 24 53  1  0
 24 54  1  0
 25 55  1  0
 27 56  1  0
 28 57  1  0
 29 58  1  0
 30 59  1  0
 32 60  1  0
 34 61  1  0
 38 62  1  0
 41 63  1  0
 41 64  1  0
M  CHG  3   5  -1  16   1  19  -1
M  END
>  <EmbedRMS>  (661) 
0.08843274211289251

$$$$

     RDKit          3D

 64 67  0  0  0  0  0  0  0  0999 V2000
   10.2815   43.7743   33.8079 C   0  0  0  0  0  0  0  0  0  0  0  0
   11.4052   43.5906   34.3624 O   0  0  0  0  0  0  0  0  0  0  0  0
    9.3705   42.7275   33.6925 O   0  0  0  0  0  0  0  0  0  0  0  0
    9.8869   41.2328   34.2817 P   0  0  0  0  0  5  0  0  0  0  0  0
   10.3647   41.4710   35.8727 O   0  0  0  0  0  1  0  0  0  0  0  0
    9.9373   45.1254   33.2766 C   0  0  2  0  0  0  0  0  0  0  0  0
   11.0827   46.0195   33.4549 N   0  0  0  0  0  0  0  0  0  0  0  0
    8.7177   45.7097   34.0195 C   0  0  0  0  0  0  0  0  0  0  0  0
    7.4584   44.9511   33.7305 C   0  0  0  0  0  0  0  0  0  0  0  0
    6.8720   45.0472   32.4642 O   0  0  0  0  0  0  0  0  0  0  0  0
    6.9443   44.2253   34.6252 O   0  0  0  0  0  0  0  0  0  0  0  0
    5.7022   44.3219   32.0921 C   0  0  0  0  0  0  0  0  0  0  0  0
    6.0168   42.8562   31.8994 C   0  0  0  0  0  0  0  0  0  0  0  0
    7.0059   42.4062   30.9834 C   0  0  0  0  0  0  0  0  0  0  0  0
    5.3196   41.9110   32.6747 C   0  0  0  0  0  0  0  0  0  0  0  0
    7.7800   43.3214   30.1867 N   0  0  0  0  0  4  0  0  0  0  0  0
    7.2535   41.0262   30.8677 C   0  0  0  0  0  0  0  0  0  0  0  0
    5.5903   40.5477   32.5513 C   0  0  0  0  0  0  0  0  0  0  0  0
    7.1925   44.4179   29.6006 O   0  0  0  0  0  1  0  0  0  0  0  0
    8.9631   43.0483   29.8958 O   0  0  0  0  0  0  0  0  0  0  0  0
    6.5540   40.1060   31.6480 C   0  0  0  0  0  0  0  0  0  0  0  0
    8.8085   40.1908   34.2066 O   0  0  0  0  0  0  0  0  0  0  0  0
   11.2404   40.7879   33.3685 O   0  0  0  0  0  0  0  0  0  0  0  0
   10.9211   40.6863   31.9950 C   0  0  0  0  0  0  0  0  0  0  0  0
   11.5185   39.3780   31.4395 C   0  0  0  0  0  0  0  0  0  0  0  0
   12.7490   39.0846   32.0729 O   0  0  0  0  0  0  0  0  0  0  0  0
   10.6045   38.1886   31.6672 C   0  0  0  0  0  0  0  0  0  0  0  0
   12.9343   37.6782   32.0280 C   0  0  0  0  0  0  0  0  0  0  0  0
    9.6378   38.0943   30.6487 O   0  0  0  0  0  0  0  0  0  0  0  0
   11.5749   37.0137   31.7059 C   0  0  0  0  0  0  0  0  0  0  0  0
   13.4906   37.2171   33.3233 N   0  0  0  0  0  0  0  0  0  0  0  0
   11.6216   36.3374   30.4689 O   0  0  0  0  0  0  0  0  0  0  0  0
   14.4764   36.3269   33.5727 C   0  0  0  0  0  0  0  0  0  0  0  0
   13.1180   37.6313   34.5684 C   0  0  0  0  0  0  0  0  0  0  0  0
   15.2066   35.6136   32.6739 N   0  0  0  0  0  0  0  0  0  0  0  0
   14.6735   36.2275   34.9182 C   0  0  0  0  0  0  0  0  0  0  0  0
   13.8226   37.0457   35.5781 N   0  0  0  0  0  0  0  0  0  0  0  0
   16.1639   34.7592   33.1548 C   0  0  0  0  0  0  0  0  0  0  0  0
   15.6517   35.3493   35.4131 C   0  0  0  0  0  0  0  0  0  0  0  0
   16.3793   34.6309   34.5043 N   0  0  0  0  0  0  0  0  0  0  0  0
   15.9002   35.1935   36.8090 N   0  0  0  0  0  0  0  0  0  0  0  0
    9.7053   45.0369   32.1907 H   0  0  0  0  0  0  0  0  0  0  0  0
   10.8344   46.9594   33.0682 H   0  0  0  0  0  0  0  0  0  0  0  0
   11.8674   45.6740   32.8542 H   0  0  0  0  0  0  0  0  0  0  0  0
    8.5565   46.7614   33.6985 H   0  0  0  0  0  0  0  0  0  0  0  0
    8.9117   45.7233   35.1153 H   0  0  0  0  0  0  0  0  0  0  0  0
    5.2949   44.7383   31.1488 H   0  0  0  0  0  0  0  0  0  0  0  0
    4.9141   44.4764   32.8618 H   0  0  0  0  0  0  0  0  0  0  0  0
    4.5666   42.2290   33.3852 H   0  0  0  0  0  0  0  0  0  0  0  0
    7.9896   40.6604   30.1630 H   0  0  0  0  0  0  0  0  0  0  0  0
    5.0499   39.8320   33.1573 H   0  0  0  0  0  0  0  0  0  0  0  0
    6.7604   39.0478   31.5517 H   0  0  0  0  0  0  0  0  0  0  0  0
    9.8351   40.7242   31.7598 H   0  0  0  0  0  0  0  0  0  0  0  0
   11.3957   41.5431   31.4709 H   0  0  0  0  0  0  0  0  0  0  0  0
   11.6995   39.5027   30.3468 H   0  0  0  0  0  0  0  0  0  0  0  0
   10.1092   38.2802   32.6629 H   0  0  0  0  0  0  0  0  0  0  0  0
   13.6665   37.4522   31.2211 H   0  0  0  0  0  0  0  0  0  0  0  0
    8.9698   37.4290   30.9588 H   0  0  0  0  0  0  0  0  0  0  0  0
   11.2842   36.3053   32.5181 H   0  0  0  0  0  0  0  0  0  0  0  0
   10.8642   35.6957   30.4649 H   0  0  0  0  0  0  0  0  0  0  0  0
   12.3353   38.3584   34.7437 H   0  0  0  0  0  0  0  0  0  0  0  0
   16.7573   34.1786   32.4621 H   0  0  0  0  0  0  0  0  0  0  0  0
   16.6361   34.5316   37.1416 H   0  0  0  0  0  0  0  0  0  0  0  0
   15.3530   35.7358   37.5138 H   0  0  0  0  0  0  0  0  0  0  0  0
  1  2  2  0
  1  3  1  0
  3  4  1  0
  4  5  1  0
  6  1  1  0
  7  6  1  0
  6  8  1  0
  8  9  1  0
  9 10  1  0
  9 11  2  0
 10 12  1  0
 12 13  1  0
 13 14  2  0
 15 13  1  0
 14 16  1  0
 14 17  1  0
 18 15  2  0
 16 19  1  0
 16 20  2  0
 17 21  2  0
 21 18  1  0
  4 22  2  0
  4 23  1  0
 24 23  1  0
 24 25  1  0
 25 26  1  0
 25 27  1  0
 26 28  1  0
 27 29  1  0
 27 30  1  0
 30 28  1  0
 28 31  1  0
 30 32  1  0
 33 31  1  0
 34 31  1  0
 35 33  2  0
 33 36  1  0
 37 34  2  0
 38 35  1  0
 36 39  2  0
 36 37  1  0
 40 38  2  0
 40 39  1  0
 39 41  1  0
  6 42  1  6
  7 43  1  0
  7 44  1  0
  8 45  1  0
  8 46  1  0
 12 47  1  0
 12 48  1  0
 15 49  1  0
 17 50  1  0
 18 51  1  0
 21 52  1  0
 24 53  1  0
 24 54  1  0
 25 55  1  0
 27 56  1  0
 28 57  1  0
 29 58  1  0
 30 59  1  0
 32 60  1  0
 34 61  1  0
 38 62  1  0
 41 63  1  0
 41 64  1  0
M  CHG  3   5  -1  16   1  19  -1
M  END
>  <EmbedRMS>  (662) 
0.0900677150831429

$$$$

     RDKit          3D

 64 67  0  0  0  0  0  0  0  0999 V2000
   10.2862   43.7710   33.8100 C   0  0  0  0  0  0  0  0  0  0  0  0
   11.4101   43.5817   34.3615 O   0  0  0  0  0  0  0  0  0  0  0  0
    9.3665   42.7311   33.7024 O   0  0  0  0  0  0  0  0  0  0  0  0
    9.8845   41.2331   34.2841 P   0  0  0  0  0  5  0  0  0  0  0  0
   10.3659   41.4675   35.8745 O   0  0  0  0  0  1  0  0  0  0  0  0
    9.9612   45.1119   33.2467 C   0  0  2  0  0  0  0  0  0  0  0  0
   11.0651   46.0484   33.4750 N   0  0  0  0  0  0  0  0  0  0  0  0
    8.6634   45.6561   33.8670 C   0  0  0  0  0  0  0  0  0  0  0  0
    8.2958   46.9764   33.2653 C   0  0  0  0  0  0  0  0  0  0  0  0
    7.7782   47.0189   31.9656 O   0  0  0  0  0  0  0  0  0  0  0  0
    8.4955   48.0394   33.9146 O   0  0  0  0  0  0  0  0  0  0  0  0
    7.5311   48.2379   31.2654 C   0  0  0  0  0  0  0  0  0  0  0  0
    8.8237   48.9331   30.8898 C   0  0  0  0  0  0  0  0  0  0  0  0
    8.9226   50.3488   30.8289 C   0  0  0  0  0  0  0  0  0  0  0  0
    9.9553   48.1556   30.5736 C   0  0  0  0  0  0  0  0  0  0  0  0
    7.7805   51.1990   31.0280 N   0  0  0  0  0  4  0  0  0  0  0  0
   10.1676   50.9393   30.5506 C   0  0  0  0  0  0  0  0  0  0  0  0
   11.1777   48.7614   30.2813 C   0  0  0  0  0  0  0  0  0  0  0  0
    7.9408   52.4401   31.6001 O   0  0  0  0  0  1  0  0  0  0  0  0
    6.6852   50.9177   30.4994 O   0  0  0  0  0  0  0  0  0  0  0  0
   11.2868   50.1503   30.2823 C   0  0  0  0  0  0  0  0  0  0  0  0
    8.8068   40.1905   34.2081 O   0  0  0  0  0  0  0  0  0  0  0  0
   11.2362   40.7908   33.3671 O   0  0  0  0  0  0  0  0  0  0  0  0
   10.9133   40.6860   31.9945 C   0  0  0  0  0  0  0  0  0  0  0  0
   11.5168   39.3798   31.4409 C   0  0  0  0  0  0  0  0  0  0  0  0
   12.7487   39.0887   32.0763 O   0  0  0  0  0  0  0  0  0  0  0  0
   10.6051   38.1876   31.6659 C   0  0  0  0  0  0  0  0  0  0  0  0
   12.9411   37.6829   32.0278 C   0  0  0  0  0  0  0  0  0  0  0  0
    9.6358   38.0930   30.6502 O   0  0  0  0  0  0  0  0  0  0  0  0
   11.5827   37.0179   31.6936 C   0  0  0  0  0  0  0  0  0  0  0  0
   13.4909   37.2177   33.3239 N   0  0  0  0  0  0  0  0  0  0  0  0
   11.6141   36.3180   30.4675 O   0  0  0  0  0  0  0  0  0  0  0  0
   14.4762   36.3270   33.5733 C   0  0  0  0  0  0  0  0  0  0  0  0
   13.1179   37.6316   34.5689 C   0  0  0  0  0  0  0  0  0  0  0  0
   15.2067   35.6140   32.6743 N   0  0  0  0  0  0  0  0  0  0  0  0
   14.6731   36.2272   34.9186 C   0  0  0  0  0  0  0  0  0  0  0  0
   13.8223   37.0456   35.5785 N   0  0  0  0  0  0  0  0  0  0  0  0
   16.1639   34.7595   33.1550 C   0  0  0  0  0  0  0  0  0  0  0  0
   15.6515   35.3491   35.4134 C   0  0  0  0  0  0  0  0  0  0  0  0
   16.3792   34.6310   34.5045 N   0  0  0  0  0  0  0  0  0  0  0  0
   15.9002   35.1933   36.8092 N   0  0  0  0  0  0  0  0  0  0  0  0
    9.8130   44.9932   32.1504 H   0  0  0  0  0  0  0  0  0  0  0  0
   11.2755   46.1176   34.4983 H   0  0  0  0  0  0  0  0  0  0  0  0
   11.9212   45.7052   32.9806 H   0  0  0  0  0  0  0  0  0  0  0  0
    7.8292   44.9453   33.6810 H   0  0  0  0  0  0  0  0  0  0  0  0
    8.7815   45.7625   34.9684 H   0  0  0  0  0  0  0  0  0  0  0  0
    6.9699   48.0073   30.3361 H   0  0  0  0  0  0  0  0  0  0  0  0
    6.8935   48.8833   31.9058 H   0  0  0  0  0  0  0  0  0  0  0  0
    9.8986   47.0745   30.5680 H   0  0  0  0  0  0  0  0  0  0  0  0
   10.2659   52.0169   30.5132 H   0  0  0  0  0  0  0  0  0  0  0  0
   12.0432   48.1514   30.0570 H   0  0  0  0  0  0  0  0  0  0  0  0
   12.2369   50.6177   30.0581 H   0  0  0  0  0  0  0  0  0  0  0  0
   11.3853   41.5434   31.4688 H   0  0  0  0  0  0  0  0  0  0  0  0
    9.8232   40.7211   31.7578 H   0  0  0  0  0  0  0  0  0  0  0  0
   11.6993   39.5065   30.3487 H   0  0  0  0  0  0  0  0  0  0  0  0
   10.1120   38.2722   32.6631 H   0  0  0  0  0  0  0  0  0  0  0  0
   13.6816   37.4634   31.2269 H   0  0  0  0  0  0  0  0  0  0  0  0
    9.0037   37.3827   30.9348 H   0  0  0  0  0  0  0  0  0  0  0  0
   11.2846   36.3041   32.4928 H   0  0  0  0  0  0  0  0  0  0  0  0
   11.8849   36.9590   29.7588 H   0  0  0  0  0  0  0  0  0  0  0  0
   12.3363   38.3599   34.7441 H   0  0  0  0  0  0  0  0  0  0  0  0
   16.7574   34.1791   32.4623 H   0  0  0  0  0  0  0  0  0  0  0  0
   15.3529   35.7355   37.5141 H   0  0  0  0  0  0  0  0  0  0  0  0
   16.6363   34.5316   37.1418 H   0  0  0  0  0  0  0  0  0  0  0  0
  1  2  2  0
  1  3  1  0
  3  4  1  0
  4  5  1  0
  6  1  1  0
  7  6  1  0
  6  8  1  0
  8  9  1  0
  9 10  1  0
  9 11  2  0
 10 12  1  0
 12 13  1  0
 13 14  2  0
 15 13  1  0
 14 16  1  0
 14 17  1  0
 18 15  2  0
 16 19  1  0
 16 20  2  0
 17 21  2  0
 21 18  1  0
  4 22  2  0
  4 23  1  0
 24 23  1  0
 24 25  1  0
 25 26  1  0
 25 27  1  0
 26 28  1  0
 27 29  1  0
 27 30  1  0
 30 28  1  0
 28 31  1  0
 30 32  1  0
 33 31  1  0
 34 31  1  0
 35 33  2  0
 33 36  1  0
 37 34  2  0
 38 35  1  0
 36 39  2  0
 36 37  1  0
 40 38  2  0
 40 39  1  0
 39 41  1  0
  6 42  1  6
  7 43  1  0
  7 44  1  0
  8 45  1  0
  8 46  1  0
 12 47  1  0
 12 48  1  0
 15 49  1  0
 17 50  1  0
 18 51  1  0
 21 52  1  0
 24 53  1  0
 24 54  1  0
 25 55  1  0
 27 56  1  0
 28 57  1  0
 29 58  1  0
 30 59  1  0
 32 60  1  0
 34 61  1  0
 38 62  1  0
 41 63  1  0
 41 64  1  0
M  CHG  3   5  -1  16   1  19  -1
M  END
>  <EmbedRMS>  (663) 
0.08835662823994174

$$$$

     RDKit          3D

 64 67  0  0  0  0  0  0  0  0999 V2000
   10.2837   43.7713   33.8074 C   0  0  0  0  0  0  0  0  0  0  0  0
   11.4076   43.5825   34.3598 O   0  0  0  0  0  0  0  0  0  0  0  0
    9.3668   42.7295   33.7039 O   0  0  0  0  0  0  0  0  0  0  0  0
    9.8852   41.2324   34.2856 P   0  0  0  0  0  5  0  0  0  0  0  0
   10.3661   41.4675   35.8760 O   0  0  0  0  0  1  0  0  0  0  0  0
    9.9606   45.1168   33.2411 C   0  0  2  0  0  0  0  0  0  0  0  0
   11.0678   46.0455   33.4807 N   0  0  0  0  0  0  0  0  0  0  0  0
    8.6650   45.6941   33.8566 C   0  0  0  0  0  0  0  0  0  0  0  0
    7.4028   45.2365   33.1777 C   0  0  0  0  0  0  0  0  0  0  0  0
    6.2383   45.9928   33.3489 O   0  0  0  0  0  0  0  0  0  0  0  0
    7.3788   44.1779   32.4915 O   0  0  0  0  0  0  0  0  0  0  0  0
    4.9995   45.6757   32.7162 C   0  0  0  0  0  0  0  0  0  0  0  0
    5.0907   45.8783   31.2206 C   0  0  0  0  0  0  0  0  0  0  0  0
    5.5532   47.0937   30.6478 C   0  0  0  0  0  0  0  0  0  0  0  0
    4.7437   44.8088   30.3745 C   0  0  0  0  0  0  0  0  0  0  0  0
    5.9043   48.2302   31.4582 N   0  0  0  0  0  4  0  0  0  0  0  0
    5.6860   47.1844   29.2499 C   0  0  0  0  0  0  0  0  0  0  0  0
    4.8684   44.9260   28.9898 C   0  0  0  0  0  0  0  0  0  0  0  0
    5.1449   48.5742   32.5521 O   0  0  0  0  0  1  0  0  0  0  0  0
    6.8063   49.0091   31.0860 O   0  0  0  0  0  0  0  0  0  0  0  0
    5.3432   46.1095   28.4289 C   0  0  0  0  0  0  0  0  0  0  0  0
    8.8076   40.1898   34.2090 O   0  0  0  0  0  0  0  0  0  0  0  0
   11.2369   40.7902   33.3690 O   0  0  0  0  0  0  0  0  0  0  0  0
   10.9150   40.6897   31.9962 C   0  0  0  0  0  0  0  0  0  0  0  0
   11.5267   39.3899   31.4374 C   0  0  0  0  0  0  0  0  0  0  0  0
   12.7506   39.0917   32.0838 O   0  0  0  0  0  0  0  0  0  0  0  0
   10.6121   38.1916   31.6451 C   0  0  0  0  0  0  0  0  0  0  0  0
   12.9428   37.6853   32.0295 C   0  0  0  0  0  0  0  0  0  0  0  0
    9.6069   38.0858   30.6602 O   0  0  0  0  0  0  0  0  0  0  0  0
   11.5844   37.0186   31.6879 C   0  0  0  0  0  0  0  0  0  0  0  0
   13.4898   37.2164   33.3250 N   0  0  0  0  0  0  0  0  0  0  0  0
   11.6201   36.3063   30.4692 O   0  0  0  0  0  0  0  0  0  0  0  0
   14.4758   36.3263   33.5738 C   0  0  0  0  0  0  0  0  0  0  0  0
   13.1175   37.6308   34.5699 C   0  0  0  0  0  0  0  0  0  0  0  0
   15.2065   35.6139   32.6746 N   0  0  0  0  0  0  0  0  0  0  0  0
   14.6731   36.2267   34.9190 C   0  0  0  0  0  0  0  0  0  0  0  0
   13.8224   37.0450   35.5792 N   0  0  0  0  0  0  0  0  0  0  0  0
   16.1640   34.7596   33.1551 C   0  0  0  0  0  0  0  0  0  0  0  0
   15.6517   35.3489   35.4136 C   0  0  0  0  0  0  0  0  0  0  0  0
   16.3795   34.6310   34.5046 N   0  0  0  0  0  0  0  0  0  0  0  0
   15.9006   35.1931   36.8094 N   0  0  0  0  0  0  0  0  0  0  0  0
    9.8351   45.0156   32.1402 H   0  0  0  0  0  0  0  0  0  0  0  0
   11.2638   46.1166   34.5069 H   0  0  0  0  0  0  0  0  0  0  0  0
   11.9292   45.6962   32.9995 H   0  0  0  0  0  0  0  0  0  0  0  0
    8.6059   45.4488   34.9394 H   0  0  0  0  0  0  0  0  0  0  0  0
    8.6917   46.8030   33.7761 H   0  0  0  0  0  0  0  0  0  0  0  0
    4.7184   44.6305   32.9722 H   0  0  0  0  0  0  0  0  0  0  0  0
    4.2002   46.3258   33.1267 H   0  0  0  0  0  0  0  0  0  0  0  0
    4.3867   43.8732   30.7872 H   0  0  0  0  0  0  0  0  0  0  0  0
    6.0416   48.0989   28.7921 H   0  0  0  0  0  0  0  0  0  0  0  0
    4.6023   44.0940   28.3506 H   0  0  0  0  0  0  0  0  0  0  0  0
    5.4430   46.1963   27.3546 H   0  0  0  0  0  0  0  0  0  0  0  0
   11.3816   41.5528   31.4747 H   0  0  0  0  0  0  0  0  0  0  0  0
    9.8248   40.7190   31.7594 H   0  0  0  0  0  0  0  0  0  0  0  0
   11.7315   39.5340   30.3520 H   0  0  0  0  0  0  0  0  0  0  0  0
   10.1213   38.2681   32.6412 H   0  0  0  0  0  0  0  0  0  0  0  0
   13.6881   37.4709   31.2319 H   0  0  0  0  0  0  0  0  0  0  0  0
   10.0256   38.1752   29.7655 H   0  0  0  0  0  0  0  0  0  0  0  0
   11.2795   36.3124   32.4915 H   0  0  0  0  0  0  0  0  0  0  0  0
   11.9871   36.9100   29.7714 H   0  0  0  0  0  0  0  0  0  0  0  0
   12.3365   38.3596   34.7453 H   0  0  0  0  0  0  0  0  0  0  0  0
   16.7576   34.1794   32.4622 H   0  0  0  0  0  0  0  0  0  0  0  0
   16.6368   34.5316   37.1418 H   0  0  0  0  0  0  0  0  0  0  0  0
   15.3532   35.7351   37.5143 H   0  0  0  0  0  0  0  0  0  0  0  0
  1  2  2  0
  1  3  1  0
  3  4  1  0
  4  5  1  0
  6  1  1  0
  7  6  1  0
  6  8  1  0
  8  9  1  0
  9 10  1  0
  9 11  2  0
 10 12  1  0
 12 13  1  0
 13 14  2  0
 15 13  1  0
 14 16  1  0
 14 17  1  0
 18 15  2  0
 16 19  1  0
 16 20  2  0
 17 21  2  0
 21 18  1  0
  4 22  2  0
  4 23  1  0
 24 23  1  0
 24 25  1  0
 25 26  1  0
 25 27  1  0
 26 28  1  0
 27 29  1  0
 27 30  1  0
 30 28  1  0
 28 31  1  0
 30 32  1  0
 33 31  1  0
 34 31  1  0
 35 33  2  0
 33 36  1  0
 37 34  2  0
 38 35  1  0
 36 39  2  0
 36 37  1  0
 40 38  2  0
 40 39  1  0
 39 41  1  0
  6 42  1  6
  7 43  1  0
  7 44  1  0
  8 45  1  0
  8 46  1  0
 12 47  1  0
 12 48  1  0
 15 49  1  0
 17 50  1  0
 18 51  1  0
 21 52  1  0
 24 53  1  0
 24 54  1  0
 25 55  1  0
 27 56  1  0
 28 57  1  0
 29 58  1  0
 30 59  1  0
 32 60  1  0
 34 61  1  0
 38 62  1  0
 41 63  1  0
 41 64  1  0
M  CHG  3   5  -1  16   1  19  -1
M  END
>  <EmbedRMS>  (664) 
0.08758582153738383

$$$$

     RDKit          3D

 64 67  0  0  0  0  0  0  0  0999 V2000
   10.2802   43.7763   33.8101 C   0  0  0  0  0  0  0  0  0  0  0  0
   11.4064   43.5918   34.3593 O   0  0  0  0  0  0  0  0  0  0  0  0
    9.3682   42.7303   33.6992 O   0  0  0  0  0  0  0  0  0  0  0  0
    9.8867   41.2340   34.2839 P   0  0  0  0  0  5  0  0  0  0  0  0
   10.3668   41.4700   35.8745 O   0  0  0  0  0  1  0  0  0  0  0  0
    9.9511   45.1165   33.2479 C   0  0  2  0  0  0  0  0  0  0  0  0
   11.0761   46.0242   33.4795 N   0  0  0  0  0  0  0  0  0  0  0  0
    8.6568   45.6935   33.8674 C   0  0  0  0  0  0  0  0  0  0  0  0
    7.4169   45.0364   33.3165 C   0  0  0  0  0  0  0  0  0  0  0  0
    6.8656   45.3777   32.0726 O   0  0  0  0  0  0  0  0  0  0  0  0
    6.8688   44.1196   33.9832 O   0  0  0  0  0  0  0  0  0  0  0  0
    7.2483   46.5049   31.2828 C   0  0  0  0  0  0  0  0  0  0  0  0
    6.7389   47.7934   31.8876 C   0  0  0  0  0  0  0  0  0  0  0  0
    5.3862   47.9608   32.2887 C   0  0  0  0  0  0  0  0  0  0  0  0
    7.6452   48.8544   32.0714 C   0  0  0  0  0  0  0  0  0  0  0  0
    4.4001   46.9338   32.0800 N   0  0  0  0  0  4  0  0  0  0  0  0
    5.0000   49.1626   32.9101 C   0  0  0  0  0  0  0  0  0  0  0  0
    7.2371   50.0441   32.6752 C   0  0  0  0  0  0  0  0  0  0  0  0
    4.3744   46.2156   30.9072 O   0  0  0  0  0  1  0  0  0  0  0  0
    3.4562   46.7996   32.8861 O   0  0  0  0  0  0  0  0  0  0  0  0
    5.9190   50.1952   33.1004 C   0  0  0  0  0  0  0  0  0  0  0  0
    8.8088   40.1914   34.2085 O   0  0  0  0  0  0  0  0  0  0  0  0
   11.2382   40.7900   33.3680 O   0  0  0  0  0  0  0  0  0  0  0  0
   10.9163   40.6889   31.9949 C   0  0  0  0  0  0  0  0  0  0  0  0
   11.5253   39.3872   31.4363 C   0  0  0  0  0  0  0  0  0  0  0  0
   12.7487   39.0878   32.0801 O   0  0  0  0  0  0  0  0  0  0  0  0
   10.6101   38.1910   31.6470 C   0  0  0  0  0  0  0  0  0  0  0  0
   12.9348   37.6807   32.0292 C   0  0  0  0  0  0  0  0  0  0  0  0
    9.6126   38.0875   30.6547 O   0  0  0  0  0  0  0  0  0  0  0  0
   11.5766   37.0133   31.7025 C   0  0  0  0  0  0  0  0  0  0  0  0
   13.4901   37.2165   33.3236 N   0  0  0  0  0  0  0  0  0  0  0  0
   11.6321   36.3231   30.4741 O   0  0  0  0  0  0  0  0  0  0  0  0
   14.4763   36.3266   33.5727 C   0  0  0  0  0  0  0  0  0  0  0  0
   13.1179   37.6307   34.5689 C   0  0  0  0  0  0  0  0  0  0  0  0
   15.2065   35.6135   32.6738 N   0  0  0  0  0  0  0  0  0  0  0  0
   14.6736   36.2272   34.9182 C   0  0  0  0  0  0  0  0  0  0  0  0
   13.8228   37.0453   35.5783 N   0  0  0  0  0  0  0  0  0  0  0  0
   16.1640   34.7592   33.1547 C   0  0  0  0  0  0  0  0  0  0  0  0
   15.6518   35.3491   35.4131 C   0  0  0  0  0  0  0  0  0  0  0  0
   16.3795   34.6309   34.5042 N   0  0  0  0  0  0  0  0  0  0  0  0
   15.9004   35.1933   36.8089 N   0  0  0  0  0  0  0  0  0  0  0  0
    9.8231   44.9946   32.1504 H   0  0  0  0  0  0  0  0  0  0  0  0
   11.1116   46.2883   34.4921 H   0  0  0  0  0  0  0  0  0  0  0  0
   10.9128   46.9030   32.9355 H   0  0  0  0  0  0  0  0  0  0  0  0
    8.6021   46.7839   33.6806 H   0  0  0  0  0  0  0  0  0  0  0  0
    8.6829   45.5722   34.9733 H   0  0  0  0  0  0  0  0  0  0  0  0
    6.8196   46.3945   30.2658 H   0  0  0  0  0  0  0  0  0  0  0  0
    8.3507   46.5182   31.1529 H   0  0  0  0  0  0  0  0  0  0  0  0
    8.6786   48.7554   31.7625 H   0  0  0  0  0  0  0  0  0  0  0  0
    3.9762   49.3086   33.2309 H   0  0  0  0  0  0  0  0  0  0  0  0
    7.9468   50.8485   32.8193 H   0  0  0  0  0  0  0  0  0  0  0  0
    5.6059   51.1178   33.5719 H   0  0  0  0  0  0  0  0  0  0  0  0
    9.8262   40.7205   31.7579 H   0  0  0  0  0  0  0  0  0  0  0  0
   11.3848   41.5506   31.4729 H   0  0  0  0  0  0  0  0  0  0  0  0
   11.7274   39.5285   30.3500 H   0  0  0  0  0  0  0  0  0  0  0  0
   10.1123   38.2733   32.6390 H   0  0  0  0  0  0  0  0  0  0  0  0
   13.6685   37.4589   31.2224 H   0  0  0  0  0  0  0  0  0  0  0  0
   10.0513   38.1110   29.7648 H   0  0  0  0  0  0  0  0  0  0  0  0
   11.2801   36.3129   32.5195 H   0  0  0  0  0  0  0  0  0  0  0  0
   10.8624   35.6960   30.4645 H   0  0  0  0  0  0  0  0  0  0  0  0
   12.3356   38.3581   34.7444 H   0  0  0  0  0  0  0  0  0  0  0  0
   16.7575   34.1787   32.4620 H   0  0  0  0  0  0  0  0  0  0  0  0
   16.6364   34.5315   37.1415 H   0  0  0  0  0  0  0  0  0  0  0  0
   15.3531   35.7355   37.5138 H   0  0  0  0  0  0  0  0  0  0  0  0
  1  2  2  0
  1  3  1  0
  3  4  1  0
  4  5  1  0
  6  1  1  0
  7  6  1  0
  6  8  1  0
  8  9  1  0
  9 10  1  0
  9 11  2  0
 10 12  1  0
 12 13  1  0
 13 14  2  0
 15 13  1  0
 14 16  1  0
 14 17  1  0
 18 15  2  0
 16 19  1  0
 16 20  2  0
 17 21  2  0
 21 18  1  0
  4 22  2  0
  4 23  1  0
 24 23  1  0
 24 25  1  0
 25 26  1  0
 25 27  1  0
 26 28  1  0
 27 29  1  0
 27 30  1  0
 30 28  1  0
 28 31  1  0
 30 32  1  0
 33 31  1  0
 34 31  1  0
 35 33  2  0
 33 36  1  0
 37 34  2  0
 38 35  1  0
 36 39  2  0
 36 37  1  0
 40 38  2  0
 40 39  1  0
 39 41  1  0
  6 42  1  6
  7 43  1  0
  7 44  1  0
  8 45  1  0
  8 46  1  0
 12 47  1  0
 12 48  1  0
 15 49  1  0
 17 50  1  0
 18 51  1  0
 21 52  1  0
 24 53  1  0
 24 54  1  0
 25 55  1  0
 27 56  1  0
 28 57  1  0
 29 58  1  0
 30 59  1  0
 32 60  1  0
 34 61  1  0
 38 62  1  0
 41 63  1  0
 41 64  1  0
M  CHG  3   5  -1  16   1  19  -1
M  END
>  <EmbedRMS>  (665) 
0.08805885615189266

$$$$

     RDKit          3D

 64 67  0  0  0  0  0  0  0  0999 V2000
   10.2814   43.7743   33.8079 C   0  0  0  0  0  0  0  0  0  0  0  0
   11.4052   43.5906   34.3624 O   0  0  0  0  0  0  0  0  0  0  0  0
    9.3705   42.7276   33.6925 O   0  0  0  0  0  0  0  0  0  0  0  0
    9.8867   41.2328   34.2817 P   0  0  0  0  0  5  0  0  0  0  0  0
   10.3648   41.4710   35.8727 O   0  0  0  0  0  1  0  0  0  0  0  0
    9.9372   45.1255   33.2769 C   0  0  2  0  0  0  0  0  0  0  0  0
   11.0827   46.0194   33.4548 N   0  0  0  0  0  0  0  0  0  0  0  0
    8.7179   45.7099   34.0203 C   0  0  0  0  0  0  0  0  0  0  0  0
    7.4585   44.9511   33.7322 C   0  0  0  0  0  0  0  0  0  0  0  0
    6.8702   45.0485   32.4670 O   0  0  0  0  0  0  0  0  0  0  0  0
    6.9464   44.2236   34.6267 O   0  0  0  0  0  0  0  0  0  0  0  0
    5.7015   44.3213   32.0951 C   0  0  0  0  0  0  0  0  0  0  0  0
    6.0195   42.8569   31.8979 C   0  0  0  0  0  0  0  0  0  0  0  0
    7.0080   42.4120   30.9788 C   0  0  0  0  0  0  0  0  0  0  0  0
    5.3264   41.9079   32.6721 C   0  0  0  0  0  0  0  0  0  0  0  0
    7.7782   43.3314   30.1832 N   0  0  0  0  0  4  0  0  0  0  0  0
    7.2592   41.0330   30.8590 C   0  0  0  0  0  0  0  0  0  0  0  0
    5.6006   40.5456   32.5446 C   0  0  0  0  0  0  0  0  0  0  0  0
    7.1867   44.4276   29.6008 O   0  0  0  0  0  1  0  0  0  0  0  0
    8.9616   43.0624   29.8897 O   0  0  0  0  0  0  0  0  0  0  0  0
    6.5638   40.1089   31.6383 C   0  0  0  0  0  0  0  0  0  0  0  0
    8.8084   40.1908   34.2067 O   0  0  0  0  0  0  0  0  0  0  0  0
   11.2401   40.7880   33.3683 O   0  0  0  0  0  0  0  0  0  0  0  0
   10.9203   40.6855   31.9950 C   0  0  0  0  0  0  0  0  0  0  0  0
   11.5193   39.3780   31.4396 C   0  0  0  0  0  0  0  0  0  0  0  0
   12.7495   39.0860   32.0747 O   0  0  0  0  0  0  0  0  0  0  0  0
   10.6067   38.1870   31.6659 C   0  0  0  0  0  0  0  0  0  0  0  0
   12.9369   37.6802   32.0288 C   0  0  0  0  0  0  0  0  0  0  0  0
    9.6404   38.0908   30.6474 O   0  0  0  0  0  0  0  0  0  0  0  0
   11.5776   37.0141   31.7048 C   0  0  0  0  0  0  0  0  0  0  0  0
   13.4911   37.2176   33.3238 N   0  0  0  0  0  0  0  0  0  0  0  0
   11.6107   36.3392   30.4678 O   0  0  0  0  0  0  0  0  0  0  0  0
   14.4765   36.3270   33.5730 C   0  0  0  0  0  0  0  0  0  0  0  0
   13.1182   37.6314   34.5689 C   0  0  0  0  0  0  0  0  0  0  0  0
   15.2066   35.6138   32.6741 N   0  0  0  0  0  0  0  0  0  0  0  0
   14.6735   36.2273   34.9184 C   0  0  0  0  0  0  0  0  0  0  0  0
   13.8227   37.0455   35.5784 N   0  0  0  0  0  0  0  0  0  0  0  0
   16.1638   34.7592   33.1548 C   0  0  0  0  0  0  0  0  0  0  0  0
   15.6517   35.3491   35.4132 C   0  0  0  0  0  0  0  0  0  0  0  0
   16.3793   34.6309   34.5043 N   0  0  0  0  0  0  0  0  0  0  0  0
   15.9004   35.1933   36.8091 N   0  0  0  0  0  0  0  0  0  0  0  0
    9.7047   45.0371   32.1911 H   0  0  0  0  0  0  0  0  0  0  0  0
   11.8671   45.6740   32.8538 H   0  0  0  0  0  0  0  0  0  0  0  0
   10.8343   46.9594   33.0683 H   0  0  0  0  0  0  0  0  0  0  0  0
    8.9126   45.7237   35.1159 H   0  0  0  0  0  0  0  0  0  0  0  0
    8.5565   46.7614   33.6992 H   0  0  0  0  0  0  0  0  0  0  0  0
    5.2914   44.7392   31.1536 H   0  0  0  0  0  0  0  0  0  0  0  0
    4.9144   44.4717   32.8666 H   0  0  0  0  0  0  0  0  0  0  0  0
    4.5740   42.2219   33.3849 H   0  0  0  0  0  0  0  0  0  0  0  0
    7.9951   40.6711   30.1521 H   0  0  0  0  0  0  0  0  0  0  0  0
    5.0634   39.8269   33.1498 H   0  0  0  0  0  0  0  0  0  0  0  0
    6.7730   39.0516   31.5389 H   0  0  0  0  0  0  0  0  0  0  0  0
   11.3932   41.5430   31.4703 H   0  0  0  0  0  0  0  0  0  0  0  0
    9.8341   40.7215   31.7603 H   0  0  0  0  0  0  0  0  0  0  0  0
   11.7015   39.5031   30.3472 H   0  0  0  0  0  0  0  0  0  0  0  0
   10.1095   38.2783   32.6607 H   0  0  0  0  0  0  0  0  0  0  0  0
   13.6706   37.4569   31.2225 H   0  0  0  0  0  0  0  0  0  0  0  0
    8.9934   37.3982   30.9421 H   0  0  0  0  0  0  0  0  0  0  0  0
   11.2686   36.3061   32.5094 H   0  0  0  0  0  0  0  0  0  0  0  0
   12.1410   35.5131   30.6150 H   0  0  0  0  0  0  0  0  0  0  0  0
   12.3358   38.3589   34.7442 H   0  0  0  0  0  0  0  0  0  0  0  0
   16.7572   34.1787   32.4621 H   0  0  0  0  0  0  0  0  0  0  0  0
   16.6363   34.5315   37.1416 H   0  0  0  0  0  0  0  0  0  0  0  0
   15.3531   35.7356   37.5139 H   0  0  0  0  0  0  0  0  0  0  0  0
  1  2  2  0
  1  3  1  0
  3  4  1  0
  4  5  1  0
  6  1  1  0
  7  6  1  0
  6  8  1  0
  8  9  1  0
  9 10  1  0
  9 11  2  0
 10 12  1  0
 12 13  1  0
 13 14  2  0
 15 13  1  0
 14 16  1  0
 14 17  1  0
 18 15  2  0
 16 19  1  0
 16 20  2  0
 17 21  2  0
 21 18  1  0
  4 22  2  0
  4 23  1  0
 24 23  1  0
 24 25  1  0
 25 26  1  0
 25 27  1  0
 26 28  1  0
 27 29  1  0
 27 30  1  0
 30 28  1  0
 28 31  1  0
 30 32  1  0
 33 31  1  0
 34 31  1  0
 35 33  2  0
 33 36  1  0
 37 34  2  0
 38 35  1  0
 36 39  2  0
 36 37  1  0
 40 38  2  0
 40 39  1  0
 39 41  1  0
  6 42  1  6
  7 43  1  0
  7 44  1  0
  8 45  1  0
  8 46  1  0
 12 47  1  0
 12 48  1  0
 15 49  1  0
 17 50  1  0
 18 51  1  0
 21 52  1  0
 24 53  1  0
 24 54  1  0
 25 55  1  0
 27 56  1  0
 28 57  1  0
 29 58  1  0
 30 59  1  0
 32 60  1  0
 34 61  1  0
 38 62  1  0
 41 63  1  0
 41 64  1  0
M  CHG  3   5  -1  16   1  19  -1
M  END
>  <EmbedRMS>  (666) 
0.08989432153801781

$$$$

     RDKit          3D

 64 67  0  0  0  0  0  0  0  0999 V2000
   10.2863   43.7710   33.8098 C   0  0  0  0  0  0  0  0  0  0  0  0
   11.4101   43.5818   34.3616 O   0  0  0  0  0  0  0  0  0  0  0  0
    9.3669   42.7308   33.7020 O   0  0  0  0  0  0  0  0  0  0  0  0
    9.8847   41.2330   34.2845 P   0  0  0  0  0  5  0  0  0  0  0  0
   10.3648   41.4677   35.8752 O   0  0  0  0  0  1  0  0  0  0  0  0
    9.9606   45.1125   33.2475 C   0  0  2  0  0  0  0  0  0  0  0  0
   11.0655   46.0480   33.4747 N   0  0  0  0  0  0  0  0  0  0  0  0
    8.6651   45.6566   33.8723 C   0  0  0  0  0  0  0  0  0  0  0  0
    8.2772   46.9648   33.2567 C   0  0  0  0  0  0  0  0  0  0  0  0
    8.7059   48.1583   33.8491 O   0  0  0  0  0  0  0  0  0  0  0  0
    7.5998   46.9801   32.1927 O   0  0  0  0  0  0  0  0  0  0  0  0
    8.3808   49.4478   33.3303 C   0  0  0  0  0  0  0  0  0  0  0  0
    6.9147   49.7735   33.5242 C   0  0  0  0  0  0  0  0  0  0  0  0
    6.1984   50.5723   32.5947 C   0  0  0  0  0  0  0  0  0  0  0  0
    6.2482   49.2922   34.6680 C   0  0  0  0  0  0  0  0  0  0  0  0
    6.8494   51.1871   31.4700 N   0  0  0  0  0  4  0  0  0  0  0  0
    4.8220   50.7871   32.7898 C   0  0  0  0  0  0  0  0  0  0  0  0
    4.8861   49.5325   34.8532 C   0  0  0  0  0  0  0  0  0  0  0  0
    8.0638   51.8138   31.6304 O   0  0  0  0  0  1  0  0  0  0  0  0
    6.2332   51.3355   30.3944 O   0  0  0  0  0  0  0  0  0  0  0  0
    4.1716   50.2678   33.9097 C   0  0  0  0  0  0  0  0  0  0  0  0
    8.8073   40.1902   34.2076 O   0  0  0  0  0  0  0  0  0  0  0  0
   11.2377   40.7903   33.3696 O   0  0  0  0  0  0  0  0  0  0  0  0
   10.9187   40.6904   31.9961 C   0  0  0  0  0  0  0  0  0  0  0  0
   11.5174   39.3823   31.4411 C   0  0  0  0  0  0  0  0  0  0  0  0
   12.7494   39.0893   32.0756 O   0  0  0  0  0  0  0  0  0  0  0  0
   10.6036   38.1899   31.6659 C   0  0  0  0  0  0  0  0  0  0  0  0
   12.9401   37.6834   32.0276 C   0  0  0  0  0  0  0  0  0  0  0  0
    9.6376   38.0785   30.6474 O   0  0  0  0  0  0  0  0  0  0  0  0
   11.5804   37.0203   31.6936 C   0  0  0  0  0  0  0  0  0  0  0  0
   13.4902   37.2177   33.3237 N   0  0  0  0  0  0  0  0  0  0  0  0
   11.6118   36.3193   30.4680 O   0  0  0  0  0  0  0  0  0  0  0  0
   14.4759   36.3271   33.5731 C   0  0  0  0  0  0  0  0  0  0  0  0
   13.1175   37.6317   34.5688 C   0  0  0  0  0  0  0  0  0  0  0  0
   15.2064   35.6141   32.6742 N   0  0  0  0  0  0  0  0  0  0  0  0
   14.6729   36.2274   34.9184 C   0  0  0  0  0  0  0  0  0  0  0  0
   13.8221   37.0457   35.5783 N   0  0  0  0  0  0  0  0  0  0  0  0
   16.1637   34.7597   33.1549 C   0  0  0  0  0  0  0  0  0  0  0  0
   15.6514   35.3493   35.4133 C   0  0  0  0  0  0  0  0  0  0  0  0
   16.3791   34.6312   34.5044 N   0  0  0  0  0  0  0  0  0  0  0  0
   15.9001   35.1935   36.8091 N   0  0  0  0  0  0  0  0  0  0  0  0
    9.8092   44.9956   32.1513 H   0  0  0  0  0  0  0  0  0  0  0  0
   11.2751   46.1189   34.4981 H   0  0  0  0  0  0  0  0  0  0  0  0
   11.9219   45.7019   32.9828 H   0  0  0  0  0  0  0  0  0  0  0  0
    7.8356   44.9316   33.7191 H   0  0  0  0  0  0  0  0  0  0  0  0
    8.7975   45.7924   34.9681 H   0  0  0  0  0  0  0  0  0  0  0  0
    8.9858   50.2090   33.8655 H   0  0  0  0  0  0  0  0  0  0  0  0
    8.6632   49.4719   32.2565 H   0  0  0  0  0  0  0  0  0  0  0  0
    6.7795   48.7152   35.4146 H   0  0  0  0  0  0  0  0  0  0  0  0
    4.2562   51.3838   32.0854 H   0  0  0  0  0  0  0  0  0  0  0  0
    4.3828   49.1442   35.7293 H   0  0  0  0  0  0  0  0  0  0  0  0
    3.1145   50.4502   34.0544 H   0  0  0  0  0  0  0  0  0  0  0  0
    9.8309   40.7397   31.7558 H   0  0  0  0  0  0  0  0  0  0  0  0
   11.3998   41.5454   31.4747 H   0  0  0  0  0  0  0  0  0  0  0  0
   11.6989   39.5091   30.3489 H   0  0  0  0  0  0  0  0  0  0  0  0
   10.1130   38.2588   32.6664 H   0  0  0  0  0  0  0  0  0  0  0  0
   13.6800   37.4628   31.2265 H   0  0  0  0  0  0  0  0  0  0  0  0
    8.8952   38.6908   30.8891 H   0  0  0  0  0  0  0  0  0  0  0  0
   11.2831   36.3060   32.4929 H   0  0  0  0  0  0  0  0  0  0  0  0
   11.8859   36.9589   29.7593 H   0  0  0  0  0  0  0  0  0  0  0  0
   12.3360   38.3600   34.7441 H   0  0  0  0  0  0  0  0  0  0  0  0
   16.7572   34.1793   32.4621 H   0  0  0  0  0  0  0  0  0  0  0  0
   15.3528   35.7356   37.5140 H   0  0  0  0  0  0  0  0  0  0  0  0
   16.6362   34.5318   37.1416 H   0  0  0  0  0  0  0  0  0  0  0  0
  1  2  2  0
  1  3  1  0
  3  4  1  0
  4  5  1  0
  6  1  1  0
  7  6  1  0
  6  8  1  0
  8  9  1  0
  9 10  1  0
  9 11  2  0
 10 12  1  0
 12 13  1  0
 13 14  2  0
 15 13  1  0
 14 16  1  0
 14 17  1  0
 18 15  2  0
 16 19  1  0
 16 20  2  0
 17 21  2  0
 21 18  1  0
  4 22  2  0
  4 23  1  0
 24 23  1  0
 24 25  1  0
 25 26  1  0
 25 27  1  0
 26 28  1  0
 27 29  1  0
 27 30  1  0
 30 28  1  0
 28 31  1  0
 30 32  1  0
 33 31  1  0
 34 31  1  0
 35 33  2  0
 33 36  1  0
 37 34  2  0
 38 35  1  0
 36 39  2  0
 36 37  1  0
 40 38  2  0
 40 39  1  0
 39 41  1  0
  6 42  1  6
  7 43  1  0
  7 44  1  0
  8 45  1  0
  8 46  1  0
 12 47  1  0
 12 48  1  0
 15 49  1  0
 17 50  1  0
 18 51  1  0
 21 52  1  0
 24 53  1  0
 24 54  1  0
 25 55  1  0
 27 56  1  0
 28 57  1  0
 29 58  1  0
 30 59  1  0
 32 60  1  0
 34 61  1  0
 38 62  1  0
 41 63  1  0
 41 64  1  0
M  CHG  3   5  -1  16   1  19  -1
M  END
>  <EmbedRMS>  (667) 
0.08884391743334777

$$$$

     RDKit          3D

 64 67  0  0  0  0  0  0  0  0999 V2000
   10.2814   43.7758   33.8100 C   0  0  0  0  0  0  0  0  0  0  0  0
   11.4075   43.5921   34.3593 O   0  0  0  0  0  0  0  0  0  0  0  0
    9.3693   42.7294   33.6998 O   0  0  0  0  0  0  0  0  0  0  0  0
    9.8875   41.2334   34.2837 P   0  0  0  0  0  5  0  0  0  0  0  0
   10.3664   41.4694   35.8746 O   0  0  0  0  0  1  0  0  0  0  0  0
    9.9523   45.1149   33.2438 C   0  0  2  0  0  0  0  0  0  0  0  0
   11.0723   46.0272   33.4824 N   0  0  0  0  0  0  0  0  0  0  0  0
    8.6501   45.6876   33.8469 C   0  0  0  0  0  0  0  0  0  0  0  0
    7.4441   44.9092   33.4160 C   0  0  0  0  0  0  0  0  0  0  0  0
    7.0806   44.8981   32.0667 O   0  0  0  0  0  0  0  0  0  0  0  0
    6.7802   44.2556   34.2668 O   0  0  0  0  0  0  0  0  0  0  0  0
    6.0056   44.1078   31.5650 C   0  0  0  0  0  0  0  0  0  0  0  0
    5.8168   44.3404   30.0830 C   0  0  0  0  0  0  0  0  0  0  0  0
    5.3423   43.3166   29.2191 C   0  0  0  0  0  0  0  0  0  0  0  0
    6.0859   45.6156   29.5475 C   0  0  0  0  0  0  0  0  0  0  0  0
    4.9529   42.0262   29.7206 N   0  0  0  0  0  4  0  0  0  0  0  0
    5.2352   43.5746   27.8396 C   0  0  0  0  0  0  0  0  0  0  0  0
    5.9553   45.8563   28.1785 C   0  0  0  0  0  0  0  0  0  0  0  0
    4.2013   41.9236   30.8692 O   0  0  0  0  0  1  0  0  0  0  0  0
    5.1286   41.0049   29.0234 O   0  0  0  0  0  0  0  0  0  0  0  0
    5.5413   44.8351   27.3247 C   0  0  0  0  0  0  0  0  0  0  0  0
    8.8094   40.1911   34.2073 O   0  0  0  0  0  0  0  0  0  0  0  0
   11.2397   40.7906   33.3679 O   0  0  0  0  0  0  0  0  0  0  0  0
   10.9193   40.6890   31.9944 C   0  0  0  0  0  0  0  0  0  0  0  0
   11.5183   39.3800   31.4396 C   0  0  0  0  0  0  0  0  0  0  0  0
   12.7487   39.0874   32.0747 O   0  0  0  0  0  0  0  0  0  0  0  0
   10.6054   38.1877   31.6658 C   0  0  0  0  0  0  0  0  0  0  0  0
   12.9361   37.6815   32.0288 C   0  0  0  0  0  0  0  0  0  0  0  0
    9.6423   38.0740   30.6449 O   0  0  0  0  0  0  0  0  0  0  0  0
   11.5764   37.0159   31.7048 C   0  0  0  0  0  0  0  0  0  0  0  0
   13.4907   37.2182   33.3238 N   0  0  0  0  0  0  0  0  0  0  0  0
   11.6097   36.3398   30.4683 O   0  0  0  0  0  0  0  0  0  0  0  0
   14.4759   36.3271   33.5728 C   0  0  0  0  0  0  0  0  0  0  0  0
   13.1179   37.6317   34.5690 C   0  0  0  0  0  0  0  0  0  0  0  0
   15.2060   35.6139   32.6738 N   0  0  0  0  0  0  0  0  0  0  0  0
   14.6729   36.2272   34.9182 C   0  0  0  0  0  0  0  0  0  0  0  0
   13.8223   37.0454   35.5784 N   0  0  0  0  0  0  0  0  0  0  0  0
   16.1634   34.7594   33.1545 C   0  0  0  0  0  0  0  0  0  0  0  0
   15.6515   35.3494   35.4128 C   0  0  0  0  0  0  0  0  0  0  0  0
   16.3792   34.6312   34.5040 N   0  0  0  0  0  0  0  0  0  0  0  0
   15.9002   35.1937   36.8086 N   0  0  0  0  0  0  0  0  0  0  0  0
    9.8271   44.9970   32.1441 H   0  0  0  0  0  0  0  0  0  0  0  0
   10.9046   46.9092   32.9453 H   0  0  0  0  0  0  0  0  0  0  0  0
   11.1059   46.2844   34.4969 H   0  0  0  0  0  0  0  0  0  0  0  0
    8.5157   46.7355   33.5041 H   0  0  0  0  0  0  0  0  0  0  0  0
    8.7186   45.7031   34.9572 H   0  0  0  0  0  0  0  0  0  0  0  0
    5.0651   44.3760   32.0928 H   0  0  0  0  0  0  0  0  0  0  0  0
    6.2484   43.0418   31.7635 H   0  0  0  0  0  0  0  0  0  0  0  0
    6.4091   46.4278   30.1882 H   0  0  0  0  0  0  0  0  0  0  0  0
    4.8863   42.8030   27.1638 H   0  0  0  0  0  0  0  0  0  0  0  0
    6.1781   46.8377   27.7789 H   0  0  0  0  0  0  0  0  0  0  0  0
    5.4432   45.0243   26.2630 H   0  0  0  0  0  0  0  0  0  0  0  0
   11.3992   41.5438   31.4714 H   0  0  0  0  0  0  0  0  0  0  0  0
    9.8312   40.7372   31.7552 H   0  0  0  0  0  0  0  0  0  0  0  0
   11.7001   39.5039   30.3471 H   0  0  0  0  0  0  0  0  0  0  0  0
   10.1105   38.2628   32.6638 H   0  0  0  0  0  0  0  0  0  0  0  0
   13.6696   37.4582   31.2223 H   0  0  0  0  0  0  0  0  0  0  0  0
    8.9009   38.6897   30.8810 H   0  0  0  0  0  0  0  0  0  0  0  0
   11.2688   36.3073   32.5096 H   0  0  0  0  0  0  0  0  0  0  0  0
   12.1422   35.5149   30.6153 H   0  0  0  0  0  0  0  0  0  0  0  0
   12.3364   38.3601   34.7447 H   0  0  0  0  0  0  0  0  0  0  0  0
   16.7560   34.1781   32.4616 H   0  0  0  0  0  0  0  0  0  0  0  0
   15.3526   35.7358   37.5134 H   0  0  0  0  0  0  0  0  0  0  0  0
   16.6358   34.5316   37.1410 H   0  0  0  0  0  0  0  0  0  0  0  0
  1  2  2  0
  1  3  1  0
  3  4  1  0
  4  5  1  0
  6  1  1  0
  7  6  1  0
  6  8  1  0
  8  9  1  0
  9 10  1  0
  9 11  2  0
 10 12  1  0
 12 13  1  0
 13 14  2  0
 15 13  1  0
 14 16  1  0
 14 17  1  0
 18 15  2  0
 16 19  1  0
 16 20  2  0
 17 21  2  0
 21 18  1  0
  4 22  2  0
  4 23  1  0
 24 23  1  0
 24 25  1  0
 25 26  1  0
 25 27  1  0
 26 28  1  0
 27 29  1  0
 27 30  1  0
 30 28  1  0
 28 31  1  0
 30 32  1  0
 33 31  1  0
 34 31  1  0
 35 33  2  0
 33 36  1  0
 37 34  2  0
 38 35  1  0
 36 39  2  0
 36 37  1  0
 40 38  2  0
 40 39  1  0
 39 41  1  0
  6 42  1  6
  7 43  1  0
  7 44  1  0
  8 45  1  0
  8 46  1  0
 12 47  1  0
 12 48  1  0
 15 49  1  0
 17 50  1  0
 18 51  1  0
 21 52  1  0
 24 53  1  0
 24 54  1  0
 25 55  1  0
 27 56  1  0
 28 57  1  0
 29 58  1  0
 30 59  1  0
 32 60  1  0
 34 61  1  0
 38 62  1  0
 41 63  1  0
 41 64  1  0
M  CHG  3   5  -1  16   1  19  -1
M  END
>  <EmbedRMS>  (668) 
0.08933104007331087

$$$$

     RDKit          3D

 64 67  0  0  0  0  0  0  0  0999 V2000
   10.2843   43.7743   33.8069 C   0  0  0  0  0  0  0  0  0  0  0  0
   11.4069   43.5904   34.3634 O   0  0  0  0  0  0  0  0  0  0  0  0
    9.3678   42.7312   33.6991 O   0  0  0  0  0  0  0  0  0  0  0  0
    9.8859   41.2343   34.2835 P   0  0  0  0  0  5  0  0  0  0  0  0
   10.3666   41.4696   35.8740 O   0  0  0  0  0  1  0  0  0  0  0  0
    9.9493   45.1163   33.2544 C   0  0  2  0  0  0  0  0  0  0  0  0
   11.0751   46.0281   33.4736 N   0  0  0  0  0  0  0  0  0  0  0  0
    8.6781   45.6535   33.9407 C   0  0  0  0  0  0  0  0  0  0  0  0
    8.1759   46.8978   33.2759 C   0  0  0  0  0  0  0  0  0  0  0  0
    7.5746   46.8083   32.0152 O   0  0  0  0  0  0  0  0  0  0  0  0
    8.3136   48.0143   33.8467 O   0  0  0  0  0  0  0  0  0  0  0  0
    7.0561   47.9396   31.3158 C   0  0  0  0  0  0  0  0  0  0  0  0
    5.7987   48.4735   31.9705 C   0  0  0  0  0  0  0  0  0  0  0  0
    5.4632   49.8534   31.9308 C   0  0  0  0  0  0  0  0  0  0  0  0
    4.9233   47.5764   32.6136 C   0  0  0  0  0  0  0  0  0  0  0  0
    6.2518   50.8059   31.1975 N   0  0  0  0  0  4  0  0  0  0  0  0
    4.3193   50.3025   32.6133 C   0  0  0  0  0  0  0  0  0  0  0  0
    3.7814   48.0402   33.2679 C   0  0  0  0  0  0  0  0  0  0  0  0
    6.3526   52.1028   31.6459 O   0  0  0  0  0  1  0  0  0  0  0  0
    6.6704   50.5311   30.0540 O   0  0  0  0  0  0  0  0  0  0  0  0
    3.4868   49.4019   33.2786 C   0  0  0  0  0  0  0  0  0  0  0  0
    8.8082   40.1915   34.2082 O   0  0  0  0  0  0  0  0  0  0  0  0
   11.2372   40.7909   33.3668 O   0  0  0  0  0  0  0  0  0  0  0  0
   10.9138   40.6860   31.9943 C   0  0  0  0  0  0  0  0  0  0  0  0
   11.5171   39.3797   31.4408 C   0  0  0  0  0  0  0  0  0  0  0  0
   12.7488   39.0885   32.0761 O   0  0  0  0  0  0  0  0  0  0  0  0
   10.6052   38.1876   31.6659 C   0  0  0  0  0  0  0  0  0  0  0  0
   12.9412   37.6828   32.0278 C   0  0  0  0  0  0  0  0  0  0  0  0
    9.6358   38.0930   30.6503 O   0  0  0  0  0  0  0  0  0  0  0  0
   11.5827   37.0179   31.6936 C   0  0  0  0  0  0  0  0  0  0  0  0
   13.4909   37.2176   33.3239 N   0  0  0  0  0  0  0  0  0  0  0  0
   11.6140   36.3179   30.4675 O   0  0  0  0  0  0  0  0  0  0  0  0
   14.4763   36.3270   33.5733 C   0  0  0  0  0  0  0  0  0  0  0  0
   13.1179   37.6316   34.5689 C   0  0  0  0  0  0  0  0  0  0  0  0
   15.2067   35.6140   32.6744 N   0  0  0  0  0  0  0  0  0  0  0  0
   14.6731   36.2272   34.9186 C   0  0  0  0  0  0  0  0  0  0  0  0
   13.8223   37.0456   35.5785 N   0  0  0  0  0  0  0  0  0  0  0  0
   16.1639   34.7595   33.1551 C   0  0  0  0  0  0  0  0  0  0  0  0
   15.6515   35.3491   35.4134 C   0  0  0  0  0  0  0  0  0  0  0  0
   16.3793   34.6310   34.5046 N   0  0  0  0  0  0  0  0  0  0  0  0
   15.9002   35.1933   36.8093 N   0  0  0  0  0  0  0  0  0  0  0  0
    9.7649   45.0041   32.1616 H   0  0  0  0  0  0  0  0  0  0  0  0
   10.8428   46.9573   33.0547 H   0  0  0  0  0  0  0  0  0  0  0  0
   11.8938   45.6803   32.9217 H   0  0  0  0  0  0  0  0  0  0  0  0
    7.8670   44.8949   33.8875 H   0  0  0  0  0  0  0  0  0  0  0  0
    8.8835   45.8531   35.0160 H   0  0  0  0  0  0  0  0  0  0  0  0
    7.8504   48.7145   31.2714 H   0  0  0  0  0  0  0  0  0  0  0  0
    6.8112   47.6337   30.2775 H   0  0  0  0  0  0  0  0  0  0  0  0
    5.1304   46.5136   32.6231 H   0  0  0  0  0  0  0  0  0  0  0  0
    4.0545   51.3523   32.6057 H   0  0  0  0  0  0  0  0  0  0  0  0
    3.1252   47.3417   33.7710 H   0  0  0  0  0  0  0  0  0  0  0  0
    2.6022   49.7593   33.7898 H   0  0  0  0  0  0  0  0  0  0  0  0
   11.3858   41.5433   31.4683 H   0  0  0  0  0  0  0  0  0  0  0  0
    9.8237   40.7211   31.7578 H   0  0  0  0  0  0  0  0  0  0  0  0
   11.6995   39.5063   30.3486 H   0  0  0  0  0  0  0  0  0  0  0  0
   10.1121   38.2723   32.6631 H   0  0  0  0  0  0  0  0  0  0  0  0
   13.6816   37.4631   31.2269 H   0  0  0  0  0  0  0  0  0  0  0  0
    9.0036   37.3828   30.9349 H   0  0  0  0  0  0  0  0  0  0  0  0
   11.2846   36.3040   32.4928 H   0  0  0  0  0  0  0  0  0  0  0  0
   11.8850   36.9589   29.7588 H   0  0  0  0  0  0  0  0  0  0  0  0
   12.3363   38.3599   34.7441 H   0  0  0  0  0  0  0  0  0  0  0  0
   16.7574   34.1790   32.4623 H   0  0  0  0  0  0  0  0  0  0  0  0
   15.3529   35.7355   37.5141 H   0  0  0  0  0  0  0  0  0  0  0  0
   16.6363   34.5317   37.1418 H   0  0  0  0  0  0  0  0  0  0  0  0
  1  2  2  0
  1  3  1  0
  3  4  1  0
  4  5  1  0
  6  1  1  0
  7  6  1  0
  6  8  1  0
  8  9  1  0
  9 10  1  0
  9 11  2  0
 10 12  1  0
 12 13  1  0
 13 14  2  0
 15 13  1  0
 14 16  1  0
 14 17  1  0
 18 15  2  0
 16 19  1  0
 16 20  2  0
 17 21  2  0
 21 18  1  0
  4 22  2  0
  4 23  1  0
 24 23  1  0
 24 25  1  0
 25 26  1  0
 25 27  1  0
 26 28  1  0
 27 29  1  0
 27 30  1  0
 30 28  1  0
 28 31  1  0
 30 32  1  0
 33 31  1  0
 34 31  1  0
 35 33  2  0
 33 36  1  0
 37 34  2  0
 38 35  1  0
 36 39  2  0
 36 37  1  0
 40 38  2  0
 40 39  1  0
 39 41  1  0
  6 42  1  6
  7 43  1  0
  7 44  1  0
  8 45  1  0
  8 46  1  0
 12 47  1  0
 12 48  1  0
 15 49  1  0
 17 50  1  0
 18 51  1  0
 21 52  1  0
 24 53  1  0
 24 54  1  0
 25 55  1  0
 27 56  1  0
 28 57  1  0
 29 58  1  0
 30 59  1  0
 32 60  1  0
 34 61  1  0
 38 62  1  0
 41 63  1  0
 41 64  1  0
M  CHG  3   5  -1  16   1  19  -1
M  END
>  <EmbedRMS>  (669) 
0.08792065033787186

$$$$

     RDKit          3D

 64 67  0  0  0  0  0  0  0  0999 V2000
   10.2862   43.7719   33.8056 C   0  0  0  0  0  0  0  0  0  0  0  0
   11.4083   43.5876   34.3624 O   0  0  0  0  0  0  0  0  0  0  0  0
    9.3675   42.7309   33.6992 O   0  0  0  0  0  0  0  0  0  0  0  0
    9.8849   41.2342   34.2843 P   0  0  0  0  0  5  0  0  0  0  0  0
   10.3653   41.4700   35.8748 O   0  0  0  0  0  1  0  0  0  0  0  0
    9.9533   45.1154   33.2550 C   0  0  2  0  0  0  0  0  0  0  0  0
   11.0709   46.0348   33.4737 N   0  0  0  0  0  0  0  0  0  0  0  0
    8.6584   45.6714   33.8857 C   0  0  0  0  0  0  0  0  0  0  0  0
    8.7771   45.8877   35.3784 C   0  0  0  0  0  0  0  0  0  0  0  0
    8.9384   47.1541   35.9623 O   0  0  0  0  0  0  0  0  0  0  0  0
    8.7431   44.8834   36.1375 O   0  0  0  0  0  0  0  0  0  0  0  0
    8.8651   48.3997   35.2673 C   0  0  0  0  0  0  0  0  0  0  0  0
    7.4504   48.7095   34.8243 C   0  0  0  0  0  0  0  0  0  0  0  0
    7.1787   49.4019   33.6142 C   0  0  0  0  0  0  0  0  0  0  0  0
    6.3737   48.3123   35.6404 C   0  0  0  0  0  0  0  0  0  0  0  0
    8.2308   49.9261   32.7873 N   0  0  0  0  0  4  0  0  0  0  0  0
    5.8443   49.5925   33.2160 C   0  0  0  0  0  0  0  0  0  0  0  0
    5.0556   48.5296   35.2371 C   0  0  0  0  0  0  0  0  0  0  0  0
    8.0750   49.9623   31.4207 O   0  0  0  0  0  1  0  0  0  0  0  0
    9.1872   50.5428   33.3003 O   0  0  0  0  0  0  0  0  0  0  0  0
    4.7914   49.1572   34.0215 C   0  0  0  0  0  0  0  0  0  0  0  0
    8.8075   40.1913   34.2085 O   0  0  0  0  0  0  0  0  0  0  0  0
   11.2368   40.7901   33.3690 O   0  0  0  0  0  0  0  0  0  0  0  0
   10.9156   40.6897   31.9959 C   0  0  0  0  0  0  0  0  0  0  0  0
   11.5270   39.3898   31.4373 C   0  0  0  0  0  0  0  0  0  0  0  0
   12.7508   39.0916   32.0838 O   0  0  0  0  0  0  0  0  0  0  0  0
   10.6122   38.1916   31.6452 C   0  0  0  0  0  0  0  0  0  0  0  0
   12.9429   37.6852   32.0295 C   0  0  0  0  0  0  0  0  0  0  0  0
    9.6070   38.0858   30.6603 O   0  0  0  0  0  0  0  0  0  0  0  0
   11.5845   37.0186   31.6879 C   0  0  0  0  0  0  0  0  0  0  0  0
   13.4899   37.2163   33.3250 N   0  0  0  0  0  0  0  0  0  0  0  0
   11.6201   36.3062   30.4693 O   0  0  0  0  0  0  0  0  0  0  0  0
   14.4759   36.3263   33.5738 C   0  0  0  0  0  0  0  0  0  0  0  0
   13.1176   37.6307   34.5699 C   0  0  0  0  0  0  0  0  0  0  0  0
   15.2065   35.6139   32.6746 N   0  0  0  0  0  0  0  0  0  0  0  0
   14.6731   36.2267   34.9191 C   0  0  0  0  0  0  0  0  0  0  0  0
   13.8224   37.0450   35.5792 N   0  0  0  0  0  0  0  0  0  0  0  0
   16.1640   34.7596   33.1551 C   0  0  0  0  0  0  0  0  0  0  0  0
   15.6517   35.3489   35.4136 C   0  0  0  0  0  0  0  0  0  0  0  0
   16.3795   34.6310   34.5046 N   0  0  0  0  0  0  0  0  0  0  0  0
   15.9006   35.1931   36.8094 N   0  0  0  0  0  0  0  0  0  0  0  0
    9.7851   45.0013   32.1603 H   0  0  0  0  0  0  0  0  0  0  0  0
   10.8338   46.9470   33.0209 H   0  0  0  0  0  0  0  0  0  0  0  0
   11.9014   45.6795   32.9447 H   0  0  0  0  0  0  0  0  0  0  0  0
    7.8236   44.9617   33.6966 H   0  0  0  0  0  0  0  0  0  0  0  0
    8.3782   46.6074   33.3641 H   0  0  0  0  0  0  0  0  0  0  0  0
    9.1983   49.2054   35.9539 H   0  0  0  0  0  0  0  0  0  0  0  0
    9.5716   48.3732   34.4151 H   0  0  0  0  0  0  0  0  0  0  0  0
    6.5524   47.8173   36.5868 H   0  0  0  0  0  0  0  0  0  0  0  0
    5.6180   50.1059   32.2901 H   0  0  0  0  0  0  0  0  0  0  0  0
    4.2371   48.2061   35.8671 H   0  0  0  0  0  0  0  0  0  0  0  0
    3.7680   49.3210   33.7091 H   0  0  0  0  0  0  0  0  0  0  0  0
   11.3827   41.5526   31.4747 H   0  0  0  0  0  0  0  0  0  0  0  0
    9.8255   40.7191   31.7585 H   0  0  0  0  0  0  0  0  0  0  0  0
   11.7319   39.5338   30.3519 H   0  0  0  0  0  0  0  0  0  0  0  0
   10.1215   38.2682   32.6412 H   0  0  0  0  0  0  0  0  0  0  0  0
   13.6882   37.4707   31.2319 H   0  0  0  0  0  0  0  0  0  0  0  0
   10.0256   38.1751   29.7656 H   0  0  0  0  0  0  0  0  0  0  0  0
   11.2795   36.3123   32.4915 H   0  0  0  0  0  0  0  0  0  0  0  0
   11.9872   36.9099   29.7714 H   0  0  0  0  0  0  0  0  0  0  0  0
   12.3365   38.3595   34.7453 H   0  0  0  0  0  0  0  0  0  0  0  0
   16.7577   34.1794   32.4622 H   0  0  0  0  0  0  0  0  0  0  0  0
   16.6368   34.5316   37.1418 H   0  0  0  0  0  0  0  0  0  0  0  0
   15.3532   35.7351   37.5143 H   0  0  0  0  0  0  0  0  0  0  0  0
  1  2  2  0
  1  3  1  0
  3  4  1  0
  4  5  1  0
  6  1  1  0
  7  6  1  0
  6  8  1  0
  8  9  1  0
  9 10  1  0
  9 11  2  0
 10 12  1  0
 12 13  1  0
 13 14  2  0
 15 13  1  0
 14 16  1  0
 14 17  1  0
 18 15  2  0
 16 19  1  0
 16 20  2  0
 17 21  2  0
 21 18  1  0
  4 22  2  0
  4 23  1  0
 24 23  1  0
 24 25  1  0
 25 26  1  0
 25 27  1  0
 26 28  1  0
 27 29  1  0
 27 30  1  0
 30 28  1  0
 28 31  1  0
 30 32  1  0
 33 31  1  0
 34 31  1  0
 35 33  2  0
 33 36  1  0
 37 34  2  0
 38 35  1  0
 36 39  2  0
 36 37  1  0
 40 38  2  0
 40 39  1  0
 39 41  1  0
  6 42  1  6
  7 43  1  0
  7 44  1  0
  8 45  1  0
  8 46  1  0
 12 47  1  0
 12 48  1  0
 15 49  1  0
 17 50  1  0
 18 51  1  0
 21 52  1  0
 24 53  1  0
 24 54  1  0
 25 55  1  0
 27 56  1  0
 28 57  1  0
 29 58  1  0
 30 59  1  0
 32 60  1  0
 34 61  1  0
 38 62  1  0
 41 63  1  0
 41 64  1  0
M  CHG  3   5  -1  16   1  19  -1
M  END
>  <EmbedRMS>  (670) 
0.08712838147520063

$$$$

     RDKit          3D

 64 67  0  0  0  0  0  0  0  0999 V2000
   10.2858   43.7714   33.8033 C   0  0  0  0  0  0  0  0  0  0  0  0
   11.4106   43.5868   34.3549 O   0  0  0  0  0  0  0  0  0  0  0  0
    9.3668   42.7309   33.6995 O   0  0  0  0  0  0  0  0  0  0  0  0
    9.8853   41.2345   34.2850 P   0  0  0  0  0  5  0  0  0  0  0  0
   10.3651   41.4711   35.8754 O   0  0  0  0  0  1  0  0  0  0  0  0
    9.9548   45.1135   33.2492 C   0  0  2  0  0  0  0  0  0  0  0  0
   11.0692   46.0339   33.4844 N   0  0  0  0  0  0  0  0  0  0  0  0
    8.6238   45.6642   33.8149 C   0  0  0  0  0  0  0  0  0  0  0  0
    8.5836   45.6618   35.3146 C   0  0  0  0  0  0  0  0  0  0  0  0
    9.1118   46.7454   36.0245 O   0  0  0  0  0  0  0  0  0  0  0  0
    8.1110   44.6633   35.9232 O   0  0  0  0  0  0  0  0  0  0  0  0
    9.4324   46.6829   37.4127 C   0  0  0  0  0  0  0  0  0  0  0  0
   10.6932   45.8760   37.6145 C   0  0  0  0  0  0  0  0  0  0  0  0
   11.9900   46.4286   37.4227 C   0  0  0  0  0  0  0  0  0  0  0  0
   10.5708   44.5227   37.9795 C   0  0  0  0  0  0  0  0  0  0  0  0
   12.1917   47.8000   37.0313 N   0  0  0  0  0  4  0  0  0  0  0  0
   13.1168   45.6141   37.6361 C   0  0  0  0  0  0  0  0  0  0  0  0
   11.7025   43.7299   38.1694 C   0  0  0  0  0  0  0  0  0  0  0  0
   13.3389   48.4591   37.4097 O   0  0  0  0  0  1  0  0  0  0  0  0
   11.4253   48.3546   36.2176 O   0  0  0  0  0  0  0  0  0  0  0  0
   12.9729   44.2751   38.0011 C   0  0  0  0  0  0  0  0  0  0  0  0
    8.8082   40.1913   34.2089 O   0  0  0  0  0  0  0  0  0  0  0  0
   11.2380   40.7906   33.3702 O   0  0  0  0  0  0  0  0  0  0  0  0
   10.9188   40.6906   31.9966 C   0  0  0  0  0  0  0  0  0  0  0  0
   11.5174   39.3825   31.4414 C   0  0  0  0  0  0  0  0  0  0  0  0
   12.7495   39.0893   32.0757 O   0  0  0  0  0  0  0  0  0  0  0  0
   10.6036   38.1900   31.6660 C   0  0  0  0  0  0  0  0  0  0  0  0
   12.9401   37.6834   32.0277 C   0  0  0  0  0  0  0  0  0  0  0  0
    9.6377   38.0786   30.6475 O   0  0  0  0  0  0  0  0  0  0  0  0
   11.5804   37.0204   31.6937 C   0  0  0  0  0  0  0  0  0  0  0  0
   13.4902   37.2178   33.3238 N   0  0  0  0  0  0  0  0  0  0  0  0
   11.6118   36.3194   30.4680 O   0  0  0  0  0  0  0  0  0  0  0  0
   14.4758   36.3272   33.5731 C   0  0  0  0  0  0  0  0  0  0  0  0
   13.1176   37.6318   34.5688 C   0  0  0  0  0  0  0  0  0  0  0  0
   15.2064   35.6142   32.6742 N   0  0  0  0  0  0  0  0  0  0  0  0
   14.6729   36.2274   34.9185 C   0  0  0  0  0  0  0  0  0  0  0  0
   13.8222   37.0458   35.5784 N   0  0  0  0  0  0  0  0  0  0  0  0
   16.1637   34.7597   33.1549 C   0  0  0  0  0  0  0  0  0  0  0  0
   15.6514   35.3493   35.4133 C   0  0  0  0  0  0  0  0  0  0  0  0
   16.3791   34.6312   34.5044 N   0  0  0  0  0  0  0  0  0  0  0  0
   15.9001   35.1935   36.8091 N   0  0  0  0  0  0  0  0  0  0  0  0
    9.8339   44.9949   32.1502 H   0  0  0  0  0  0  0  0  0  0  0  0
   10.8528   46.9493   33.0270 H   0  0  0  0  0  0  0  0  0  0  0  0
   11.1749   46.2134   34.5084 H   0  0  0  0  0  0  0  0  0  0  0  0
    7.7813   45.0495   33.4286 H   0  0  0  0  0  0  0  0  0  0  0  0
    8.4616   46.7004   33.4481 H   0  0  0  0  0  0  0  0  0  0  0  0
    9.5726   47.7116   37.8045 H   0  0  0  0  0  0  0  0  0  0  0  0
    8.5797   46.2514   37.9821 H   0  0  0  0  0  0  0  0  0  0  0  0
    9.5942   44.0776   38.1230 H   0  0  0  0  0  0  0  0  0  0  0  0
   14.1142   46.0124   37.4995 H   0  0  0  0  0  0  0  0  0  0  0  0
   11.5936   42.6902   38.4503 H   0  0  0  0  0  0  0  0  0  0  0  0
   13.8496   43.6582   38.1507 H   0  0  0  0  0  0  0  0  0  0  0  0
    9.8309   40.7397   31.7565 H   0  0  0  0  0  0  0  0  0  0  0  0
   11.3997   41.5456   31.4752 H   0  0  0  0  0  0  0  0  0  0  0  0
   11.6988   39.5095   30.3492 H   0  0  0  0  0  0  0  0  0  0  0  0
   10.1130   38.2589   32.6665 H   0  0  0  0  0  0  0  0  0  0  0  0
   13.6800   37.4628   31.2266 H   0  0  0  0  0  0  0  0  0  0  0  0
    8.8953   38.6910   30.8891 H   0  0  0  0  0  0  0  0  0  0  0  0
   11.2831   36.3060   32.4929 H   0  0  0  0  0  0  0  0  0  0  0  0
   11.8860   36.9590   29.7593 H   0  0  0  0  0  0  0  0  0  0  0  0
   12.3361   38.3602   34.7442 H   0  0  0  0  0  0  0  0  0  0  0  0
   16.7572   34.1793   32.4621 H   0  0  0  0  0  0  0  0  0  0  0  0
   15.3528   35.7357   37.5140 H   0  0  0  0  0  0  0  0  0  0  0  0
   16.6362   34.5318   37.1416 H   0  0  0  0  0  0  0  0  0  0  0  0
  1  2  2  0
  1  3  1  0
  3  4  1  0
  4  5  1  0
  6  1  1  0
  7  6  1  0
  6  8  1  0
  8  9  1  0
  9 10  1  0
  9 11  2  0
 10 12  1  0
 12 13  1  0
 13 14  2  0
 15 13  1  0
 14 16  1  0
 14 17  1  0
 18 15  2  0
 16 19  1  0
 16 20  2  0
 17 21  2  0
 21 18  1  0
  4 22  2  0
  4 23  1  0
 24 23  1  0
 24 25  1  0
 25 26  1  0
 25 27  1  0
 26 28  1  0
 27 29  1  0
 27 30  1  0
 30 28  1  0
 28 31  1  0
 30 32  1  0
 33 31  1  0
 34 31  1  0
 35 33  2  0
 33 36  1  0
 37 34  2  0
 38 35  1  0
 36 39  2  0
 36 37  1  0
 40 38  2  0
 40 39  1  0
 39 41  1  0
  6 42  1  6
  7 43  1  0
  7 44  1  0
  8 45  1  0
  8 46  1  0
 12 47  1  0
 12 48  1  0
 15 49  1  0
 17 50  1  0
 18 51  1  0
 21 52  1  0
 24 53  1  0
 24 54  1  0
 25 55  1  0
 27 56  1  0
 28 57  1  0
 29 58  1  0
 30 59  1  0
 32 60  1  0
 34 61  1  0
 38 62  1  0
 41 63  1  0
 41 64  1  0
M  CHG  3   5  -1  16   1  19  -1
M  END
>  <EmbedRMS>  (671) 
0.08810688478556603

$$$$

     RDKit          3D

 64 67  0  0  0  0  0  0  0  0999 V2000
   10.2859   43.7723   33.8055 C   0  0  0  0  0  0  0  0  0  0  0  0
   11.4106   43.5878   34.3567 O   0  0  0  0  0  0  0  0  0  0  0  0
    9.3666   42.7315   33.7022 O   0  0  0  0  0  0  0  0  0  0  0  0
    9.8850   41.2342   34.2851 P   0  0  0  0  0  5  0  0  0  0  0  0
   10.3674   41.4677   35.8742 O   0  0  0  0  0  1  0  0  0  0  0  0
    9.9604   45.1095   33.2393 C   0  0  2  0  0  0  0  0  0  0  0  0
   11.0649   46.0385   33.4890 N   0  0  0  0  0  0  0  0  0  0  0  0
    8.6144   45.6561   33.7682 C   0  0  0  0  0  0  0  0  0  0  0  0
    8.6002   45.8638   35.2553 C   0  0  0  0  0  0  0  0  0  0  0  0
    8.7250   44.7624   36.1059 O   0  0  0  0  0  0  0  0  0  0  0  0
    8.4737   47.0275   35.7252 O   0  0  0  0  0  0  0  0  0  0  0  0
    8.6562   44.8666   37.5230 C   0  0  0  0  0  0  0  0  0  0  0  0
    8.9509   43.5220   38.1343 C   0  0  0  0  0  0  0  0  0  0  0  0
    7.9663   42.5017   38.2372 C   0  0  0  0  0  0  0  0  0  0  0  0
   10.2531   43.2707   38.6036 C   0  0  0  0  0  0  0  0  0  0  0  0
    6.6271   42.6763   37.7388 N   0  0  0  0  0  4  0  0  0  0  0  0
    8.3068   41.2841   38.8534 C   0  0  0  0  0  0  0  0  0  0  0  0
   10.5727   42.0494   39.1978 C   0  0  0  0  0  0  0  0  0  0  0  0
    5.5816   42.0072   38.3328 O   0  0  0  0  0  1  0  0  0  0  0  0
    6.4176   43.2845   36.6695 O   0  0  0  0  0  0  0  0  0  0  0  0
    9.6001   41.0604   39.3277 C   0  0  0  0  0  0  0  0  0  0  0  0
    8.8075   40.1914   34.2094 O   0  0  0  0  0  0  0  0  0  0  0  0
   11.2374   40.7907   33.3697 O   0  0  0  0  0  0  0  0  0  0  0  0
   10.9181   40.6905   31.9963 C   0  0  0  0  0  0  0  0  0  0  0  0
   11.5172   39.3825   31.4413 C   0  0  0  0  0  0  0  0  0  0  0  0
   12.7492   39.0894   32.0757 O   0  0  0  0  0  0  0  0  0  0  0  0
   10.6035   38.1899   31.6660 C   0  0  0  0  0  0  0  0  0  0  0  0
   12.9400   37.6835   32.0277 C   0  0  0  0  0  0  0  0  0  0  0  0
    9.6376   38.0784   30.6475 O   0  0  0  0  0  0  0  0  0  0  0  0
   11.5803   37.0204   31.6937 C   0  0  0  0  0  0  0  0  0  0  0  0
   13.4901   37.2178   33.3238 N   0  0  0  0  0  0  0  0  0  0  0  0
   11.6118   36.3194   30.4681 O   0  0  0  0  0  0  0  0  0  0  0  0
   14.4758   36.3272   33.5731 C   0  0  0  0  0  0  0  0  0  0  0  0
   13.1175   37.6318   34.5689 C   0  0  0  0  0  0  0  0  0  0  0  0
   15.2063   35.6142   32.6742 N   0  0  0  0  0  0  0  0  0  0  0  0
   14.6729   36.2275   34.9185 C   0  0  0  0  0  0  0  0  0  0  0  0
   13.8221   37.0458   35.5784 N   0  0  0  0  0  0  0  0  0  0  0  0
   16.1636   34.7597   33.1549 C   0  0  0  0  0  0  0  0  0  0  0  0
   15.6513   35.3493   35.4133 C   0  0  0  0  0  0  0  0  0  0  0  0
   16.3790   34.6312   34.5044 N   0  0  0  0  0  0  0  0  0  0  0  0
   15.9001   35.1935   36.8091 N   0  0  0  0  0  0  0  0  0  0  0  0
    9.8623   44.9790   32.1392 H   0  0  0  0  0  0  0  0  0  0  0  0
   10.8581   46.9414   33.0030 H   0  0  0  0  0  0  0  0  0  0  0  0
   11.1356   46.2458   34.5121 H   0  0  0  0  0  0  0  0  0  0  0  0
    7.7977   44.9504   33.5033 H   0  0  0  0  0  0  0  0  0  0  0  0
    8.3879   46.6169   33.2561 H   0  0  0  0  0  0  0  0  0  0  0  0
    9.3920   45.6229   37.8757 H   0  0  0  0  0  0  0  0  0  0  0  0
    7.6495   45.2208   37.8320 H   0  0  0  0  0  0  0  0  0  0  0  0
   11.0249   44.0255   38.5146 H   0  0  0  0  0  0  0  0  0  0  0  0
    7.5725   40.4944   38.9486 H   0  0  0  0  0  0  0  0  0  0  0  0
   11.5771   41.8702   39.5591 H   0  0  0  0  0  0  0  0  0  0  0  0
    9.8503   40.1142   39.7899 H   0  0  0  0  0  0  0  0  0  0  0  0
    9.8301   40.7393   31.7565 H   0  0  0  0  0  0  0  0  0  0  0  0
   11.3986   41.5456   31.4746 H   0  0  0  0  0  0  0  0  0  0  0  0
   11.6986   39.5093   30.3491 H   0  0  0  0  0  0  0  0  0  0  0  0
   10.1129   38.2588   32.6665 H   0  0  0  0  0  0  0  0  0  0  0  0
   13.6800   37.4630   31.2266 H   0  0  0  0  0  0  0  0  0  0  0  0
    8.8949   38.6904   30.8894 H   0  0  0  0  0  0  0  0  0  0  0  0
   11.2831   36.3060   32.4930 H   0  0  0  0  0  0  0  0  0  0  0  0
   11.8859   36.9590   29.7594 H   0  0  0  0  0  0  0  0  0  0  0  0
   12.3360   38.3601   34.7443 H   0  0  0  0  0  0  0  0  0  0  0  0
   16.7571   34.1793   32.4621 H   0  0  0  0  0  0  0  0  0  0  0  0
   15.3528   35.7357   37.5140 H   0  0  0  0  0  0  0  0  0  0  0  0
   16.6361   34.5318   37.1416 H   0  0  0  0  0  0  0  0  0  0  0  0
  1  2  2  0
  1  3  1  0
  3  4  1  0
  4  5  1  0
  6  1  1  0
  7  6  1  0
  6  8  1  0
  8  9  1  0
  9 10  1  0
  9 11  2  0
 10 12  1  0
 12 13  1  0
 13 14  2  0
 15 13  1  0
 14 16  1  0
 14 17  1  0
 18 15  2  0
 16 19  1  0
 16 20  2  0
 17 21  2  0
 21 18  1  0
  4 22  2  0
  4 23  1  0
 24 23  1  0
 24 25  1  0
 25 26  1  0
 25 27  1  0
 26 28  1  0
 27 29  1  0
 27 30  1  0
 30 28  1  0
 28 31  1  0
 30 32  1  0
 33 31  1  0
 34 31  1  0
 35 33  2  0
 33 36  1  0
 37 34  2  0
 38 35  1  0
 36 39  2  0
 36 37  1  0
 40 38  2  0
 40 39  1  0
 39 41  1  0
  6 42  1  6
  7 43  1  0
  7 44  1  0
  8 45  1  0
  8 46  1  0
 12 47  1  0
 12 48  1  0
 15 49  1  0
 17 50  1  0
 18 51  1  0
 21 52  1  0
 24 53  1  0
 24 54  1  0
 25 55  1  0
 27 56  1  0
 28 57  1  0
 29 58  1  0
 30 59  1  0
 32 60  1  0
 34 61  1  0
 38 62  1  0
 41 63  1  0
 41 64  1  0
M  CHG  3   5  -1  16   1  19  -1
M  END
>  <EmbedRMS>  (672) 
0.08823345267443468

$$$$

     RDKit          3D

 64 67  0  0  0  0  0  0  0  0999 V2000
   10.2874   43.7701   33.8001 C   0  0  0  0  0  0  0  0  0  0  0  0
   11.4100   43.5854   34.3556 O   0  0  0  0  0  0  0  0  0  0  0  0
    9.3674   42.7304   33.6977 O   0  0  0  0  0  0  0  0  0  0  0  0
    9.8855   41.2342   34.2841 P   0  0  0  0  0  5  0  0  0  0  0  0
   10.3653   41.4716   35.8746 O   0  0  0  0  0  1  0  0  0  0  0  0
    9.9527   45.1160   33.2549 C   0  0  2  0  0  0  0  0  0  0  0  0
   11.0700   46.0337   33.4818 N   0  0  0  0  0  0  0  0  0  0  0  0
    8.6593   45.6656   33.8926 C   0  0  0  0  0  0  0  0  0  0  0  0
    8.7261   45.6915   35.3916 C   0  0  0  0  0  0  0  0  0  0  0  0
    9.5570   46.6160   36.0347 O   0  0  0  0  0  0  0  0  0  0  0  0
    8.0590   44.8541   36.0589 O   0  0  0  0  0  0  0  0  0  0  0  0
    9.7886   46.5978   37.4419 C   0  0  0  0  0  0  0  0  0  0  0  0
   10.6252   45.3973   37.8247 C   0  0  0  0  0  0  0  0  0  0  0  0
   11.9207   45.1638   37.2832 C   0  0  0  0  0  0  0  0  0  0  0  0
   10.0621   44.4429   38.6927 C   0  0  0  0  0  0  0  0  0  0  0  0
   12.5609   46.0972   36.3898 N   0  0  0  0  0  4  0  0  0  0  0  0
   12.5922   43.9708   37.6147 C   0  0  0  0  0  0  0  0  0  0  0  0
   10.7529   43.2752   39.0157 C   0  0  0  0  0  0  0  0  0  0  0  0
   12.3906   47.4531   36.5396 O   0  0  0  0  0  1  0  0  0  0  0  0
   13.4120   45.6935   35.5700 O   0  0  0  0  0  0  0  0  0  0  0  0
   12.0134   43.0378   38.4747 C   0  0  0  0  0  0  0  0  0  0  0  0
    8.8081   40.1912   34.2088 O   0  0  0  0  0  0  0  0  0  0  0  0
   11.2381   40.7896   33.3692 O   0  0  0  0  0  0  0  0  0  0  0  0
   10.9189   40.6888   31.9954 C   0  0  0  0  0  0  0  0  0  0  0  0
   11.5181   39.3801   31.4400 C   0  0  0  0  0  0  0  0  0  0  0  0
   12.7485   39.0876   32.0750 O   0  0  0  0  0  0  0  0  0  0  0  0
   10.6054   38.1876   31.6657 C   0  0  0  0  0  0  0  0  0  0  0  0
   12.9361   37.6817   32.0289 C   0  0  0  0  0  0  0  0  0  0  0  0
    9.6424   38.0739   30.6446 O   0  0  0  0  0  0  0  0  0  0  0  0
   11.5765   37.0159   31.7047 C   0  0  0  0  0  0  0  0  0  0  0  0
   13.4908   37.2183   33.3237 N   0  0  0  0  0  0  0  0  0  0  0  0
   11.6102   36.3400   30.4681 O   0  0  0  0  0  0  0  0  0  0  0  0
   14.4762   36.3274   33.5728 C   0  0  0  0  0  0  0  0  0  0  0  0
   13.1181   37.6319   34.5690 C   0  0  0  0  0  0  0  0  0  0  0  0
   15.2063   35.6141   32.6739 N   0  0  0  0  0  0  0  0  0  0  0  0
   14.6733   36.2276   34.9183 C   0  0  0  0  0  0  0  0  0  0  0  0
   13.8226   37.0458   35.5784 N   0  0  0  0  0  0  0  0  0  0  0  0
   16.1635   34.7595   33.1546 C   0  0  0  0  0  0  0  0  0  0  0  0
   15.6515   35.3493   35.4131 C   0  0  0  0  0  0  0  0  0  0  0  0
   16.3790   34.6310   34.5041 N   0  0  0  0  0  0  0  0  0  0  0  0
   15.9002   35.1934   36.8089 N   0  0  0  0  0  0  0  0  0  0  0  0
    9.7842   45.0135   32.1592 H   0  0  0  0  0  0  0  0  0  0  0  0
   10.8129   46.9724   33.0988 H   0  0  0  0  0  0  0  0  0  0  0  0
   11.8842   45.7119   32.9082 H   0  0  0  0  0  0  0  0  0  0  0  0
    8.4656   46.6953   33.5231 H   0  0  0  0  0  0  0  0  0  0  0  0
    7.7978   45.0400   33.5703 H   0  0  0  0  0  0  0  0  0  0  0  0
   10.3013   47.5306   37.7494 H   0  0  0  0  0  0  0  0  0  0  0  0
    8.8111   46.6033   37.9729 H   0  0  0  0  0  0  0  0  0  0  0  0
    9.0747   44.5933   39.1114 H   0  0  0  0  0  0  0  0  0  0  0  0
   13.5764   43.7655   37.2132 H   0  0  0  0  0  0  0  0  0  0  0  0
   10.3048   42.5480   39.6805 H   0  0  0  0  0  0  0  0  0  0  0  0
   12.5448   42.1279   38.7222 H   0  0  0  0  0  0  0  0  0  0  0  0
   11.3995   41.5437   31.4735 H   0  0  0  0  0  0  0  0  0  0  0  0
    9.8310   40.7375   31.7556 H   0  0  0  0  0  0  0  0  0  0  0  0
   11.7001   39.5049   30.3476 H   0  0  0  0  0  0  0  0  0  0  0  0
   10.1104   38.2619   32.6637 H   0  0  0  0  0  0  0  0  0  0  0  0
   13.6696   37.4587   31.2223 H   0  0  0  0  0  0  0  0  0  0  0  0
    8.9002   38.6885   30.8813 H   0  0  0  0  0  0  0  0  0  0  0  0
   11.2690   36.3070   32.5092 H   0  0  0  0  0  0  0  0  0  0  0  0
   12.1426   35.5152   30.6154 H   0  0  0  0  0  0  0  0  0  0  0  0
   12.3361   38.3596   34.7446 H   0  0  0  0  0  0  0  0  0  0  0  0
   16.7568   34.1789   32.4618 H   0  0  0  0  0  0  0  0  0  0  0  0
   16.6361   34.5316   37.1414 H   0  0  0  0  0  0  0  0  0  0  0  0
   15.3531   35.7357   37.5138 H   0  0  0  0  0  0  0  0  0  0  0  0
  1  2  2  0
  1  3  1  0
  3  4  1  0
  4  5  1  0
  6  1  1  0
  7  6  1  0
  6  8  1  0
  8  9  1  0
  9 10  1  0
  9 11  2  0
 10 12  1  0
 12 13  1  0
 13 14  2  0
 15 13  1  0
 14 16  1  0
 14 17  1  0
 18 15  2  0
 16 19  1  0
 16 20  2  0
 17 21  2  0
 21 18  1  0
  4 22  2  0
  4 23  1  0
 24 23  1  0
 24 25  1  0
 25 26  1  0
 25 27  1  0
 26 28  1  0
 27 29  1  0
 27 30  1  0
 30 28  1  0
 28 31  1  0
 30 32  1  0
 33 31  1  0
 34 31  1  0
 35 33  2  0
 33 36  1  0
 37 34  2  0
 38 35  1  0
 36 39  2  0
 36 37  1  0
 40 38  2  0
 40 39  1  0
 39 41  1  0
  6 42  1  6
  7 43  1  0
  7 44  1  0
  8 45  1  0
  8 46  1  0
 12 47  1  0
 12 48  1  0
 15 49  1  0
 17 50  1  0
 18 51  1  0
 21 52  1  0
 24 53  1  0
 24 54  1  0
 25 55  1  0
 27 56  1  0
 28 57  1  0
 29 58  1  0
 30 59  1  0
 32 60  1  0
 34 61  1  0
 38 62  1  0
 41 63  1  0
 41 64  1  0
M  CHG  3   5  -1  16   1  19  -1
M  END
>  <EmbedRMS>  (673) 
0.0891822855555141

$$$$

     RDKit          3D

 64 67  0  0  0  0  0  0  0  0999 V2000
   10.2802   43.7763   33.8099 C   0  0  0  0  0  0  0  0  0  0  0  0
   11.4064   43.5918   34.3591 O   0  0  0  0  0  0  0  0  0  0  0  0
    9.3682   42.7303   33.6991 O   0  0  0  0  0  0  0  0  0  0  0  0
    9.8871   41.2339   34.2830 P   0  0  0  0  0  5  0  0  0  0  0  0
   10.3676   41.4696   35.8735 O   0  0  0  0  0  1  0  0  0  0  0  0
    9.9509   45.1166   33.2481 C   0  0  2  0  0  0  0  0  0  0  0  0
   11.0761   46.0242   33.4795 N   0  0  0  0  0  0  0  0  0  0  0  0
    8.6570   45.6934   33.8685 C   0  0  0  0  0  0  0  0  0  0  0  0
    7.4168   45.0380   33.3162 C   0  0  0  0  0  0  0  0  0  0  0  0
    6.8656   45.3824   32.0731 O   0  0  0  0  0  0  0  0  0  0  0  0
    6.8684   44.1198   33.9808 O   0  0  0  0  0  0  0  0  0  0  0  0
    7.2488   46.5111   31.2859 C   0  0  0  0  0  0  0  0  0  0  0  0
    6.7398   47.7985   31.8936 C   0  0  0  0  0  0  0  0  0  0  0  0
    5.3870   47.9654   32.2947 C   0  0  0  0  0  0  0  0  0  0  0  0
    7.6465   48.8586   32.0803 C   0  0  0  0  0  0  0  0  0  0  0  0
    4.4005   46.9394   32.0832 N   0  0  0  0  0  4  0  0  0  0  0  0
    5.0012   49.1659   32.9191 C   0  0  0  0  0  0  0  0  0  0  0  0
    7.2387   50.0469   32.6870 C   0  0  0  0  0  0  0  0  0  0  0  0
    4.3750   46.2241   30.9086 O   0  0  0  0  0  1  0  0  0  0  0  0
    3.4562   46.8038   32.8886 O   0  0  0  0  0  0  0  0  0  0  0  0
    5.9207   50.1976   33.1122 C   0  0  0  0  0  0  0  0  0  0  0  0
    8.8090   40.1915   34.2081 O   0  0  0  0  0  0  0  0  0  0  0  0
   11.2381   40.7905   33.3657 O   0  0  0  0  0  0  0  0  0  0  0  0
   10.9146   40.6850   31.9930 C   0  0  0  0  0  0  0  0  0  0  0  0
   11.5167   39.3773   31.4392 C   0  0  0  0  0  0  0  0  0  0  0  0
   12.7473   39.0854   32.0738 O   0  0  0  0  0  0  0  0  0  0  0  0
   10.6047   38.1868   31.6669 C   0  0  0  0  0  0  0  0  0  0  0  0
   12.9345   37.6790   32.0282 C   0  0  0  0  0  0  0  0  0  0  0  0
    9.6378   38.0918   30.6489 O   0  0  0  0  0  0  0  0  0  0  0  0
   11.5761   37.0129   31.7057 C   0  0  0  0  0  0  0  0  0  0  0  0
   13.4909   37.2177   33.3233 N   0  0  0  0  0  0  0  0  0  0  0  0
   11.6233   36.3371   30.4684 O   0  0  0  0  0  0  0  0  0  0  0  0
   14.4765   36.3272   33.5727 C   0  0  0  0  0  0  0  0  0  0  0  0
   13.1181   37.6315   34.5685 C   0  0  0  0  0  0  0  0  0  0  0  0
   15.2066   35.6137   32.6739 N   0  0  0  0  0  0  0  0  0  0  0  0
   14.6736   36.2276   34.9182 C   0  0  0  0  0  0  0  0  0  0  0  0
   13.8227   37.0457   35.5781 N   0  0  0  0  0  0  0  0  0  0  0  0
   16.1638   34.7592   33.1548 C   0  0  0  0  0  0  0  0  0  0  0  0
   15.6517   35.3492   35.4131 C   0  0  0  0  0  0  0  0  0  0  0  0
   16.3792   34.6309   34.5043 N   0  0  0  0  0  0  0  0  0  0  0  0
   15.9002   35.1934   36.8090 N   0  0  0  0  0  0  0  0  0  0  0  0
    9.8224   44.9950   32.1507 H   0  0  0  0  0  0  0  0  0  0  0  0
   11.1120   46.2882   34.4921 H   0  0  0  0  0  0  0  0  0  0  0  0
   10.9127   46.9031   32.9357 H   0  0  0  0  0  0  0  0  0  0  0  0
    8.6827   45.5702   34.9742 H   0  0  0  0  0  0  0  0  0  0  0  0
    8.6030   46.7842   33.6837 H   0  0  0  0  0  0  0  0  0  0  0  0
    8.3513   46.5243   31.1563 H   0  0  0  0  0  0  0  0  0  0  0  0
    6.8203   46.4031   30.2686 H   0  0  0  0  0  0  0  0  0  0  0  0
    8.6800   48.7599   31.7715 H   0  0  0  0  0  0  0  0  0  0  0  0
    3.9774   49.3115   33.2399 H   0  0  0  0  0  0  0  0  0  0  0  0
    7.9488   50.8506   32.8334 H   0  0  0  0  0  0  0  0  0  0  0  0
    5.6079   51.1191   33.5860 H   0  0  0  0  0  0  0  0  0  0  0  0
   11.3873   41.5415   31.4665 H   0  0  0  0  0  0  0  0  0  0  0  0
    9.8245   40.7213   31.7567 H   0  0  0  0  0  0  0  0  0  0  0  0
   11.6987   39.5012   30.3466 H   0  0  0  0  0  0  0  0  0  0  0  0
   10.1096   38.2772   32.6629 H   0  0  0  0  0  0  0  0  0  0  0  0
   13.6672   37.4543   31.2213 H   0  0  0  0  0  0  0  0  0  0  0  0
    8.9778   37.4159   30.9535 H   0  0  0  0  0  0  0  0  0  0  0  0
   11.2860   36.3041   32.5177 H   0  0  0  0  0  0  0  0  0  0  0  0
   10.8689   35.6919   30.4657 H   0  0  0  0  0  0  0  0  0  0  0  0
   12.3355   38.3586   34.7439 H   0  0  0  0  0  0  0  0  0  0  0  0
   16.7572   34.1786   32.4621 H   0  0  0  0  0  0  0  0  0  0  0  0
   15.3530   35.7358   37.5138 H   0  0  0  0  0  0  0  0  0  0  0  0
   16.6361   34.5315   37.1416 H   0  0  0  0  0  0  0  0  0  0  0  0
  1  2  2  0
  1  3  1  0
  3  4  1  0
  4  5  1  0
  6  1  1  0
  7  6  1  0
  6  8  1  0
  8  9  1  0
  9 10  1  0
  9 11  2  0
 10 12  1  0
 12 13  1  0
 13 14  2  0
 15 13  1  0
 14 16  1  0
 14 17  1  0
 18 15  2  0
 16 19  1  0
 16 20  2  0
 17 21  2  0
 21 18  1  0
  4 22  2  0
  4 23  1  0
 24 23  1  0
 24 25  1  0
 25 26  1  0
 25 27  1  0
 26 28  1  0
 27 29  1  0
 27 30  1  0
 30 28  1  0
 28 31  1  0
 30 32  1  0
 33 31  1  0
 34 31  1  0
 35 33  2  0
 33 36  1  0
 37 34  2  0
 38 35  1  0
 36 39  2  0
 36 37  1  0
 40 38  2  0
 40 39  1  0
 39 41  1  0
  6 42  1  6
  7 43  1  0
  7 44  1  0
  8 45  1  0
  8 46  1  0
 12 47  1  0
 12 48  1  0
 15 49  1  0
 17 50  1  0
 18 51  1  0
 21 52  1  0
 24 53  1  0
 24 54  1  0
 25 55  1  0
 27 56  1  0
 28 57  1  0
 29 58  1  0
 30 59  1  0
 32 60  1  0
 34 61  1  0
 38 62  1  0
 41 63  1  0
 41 64  1  0
M  CHG  3   5  -1  16   1  19  -1
M  END
>  <EmbedRMS>  (674) 
0.08892980494177966

$$$$

     RDKit          3D

 64 67  0  0  0  0  0  0  0  0999 V2000
   10.2808   43.7760   33.8100 C   0  0  0  0  0  0  0  0  0  0  0  0
   11.4069   43.5917   34.3593 O   0  0  0  0  0  0  0  0  0  0  0  0
    9.3681   42.7301   33.7002 O   0  0  0  0  0  0  0  0  0  0  0  0
    9.8863   41.2340   34.2847 P   0  0  0  0  0  5  0  0  0  0  0  0
   10.3665   41.4698   35.8751 O   0  0  0  0  0  1  0  0  0  0  0  0
    9.9525   45.1158   33.2448 C   0  0  2  0  0  0  0  0  0  0  0  0
   11.0744   46.0262   33.4814 N   0  0  0  0  0  0  0  0  0  0  0  0
    8.6537   45.6907   33.8525 C   0  0  0  0  0  0  0  0  0  0  0  0
    7.4419   44.9257   33.4143 C   0  0  0  0  0  0  0  0  0  0  0  0
    7.0818   44.9213   32.0618 O   0  0  0  0  0  0  0  0  0  0  0  0
    6.7641   44.2845   34.2634 O   0  0  0  0  0  0  0  0  0  0  0  0
    5.9645   44.1920   31.5547 C   0  0  0  0  0  0  0  0  0  0  0  0
    4.6519   44.8062   31.9934 C   0  0  0  0  0  0  0  0  0  0  0  0
    3.5019   44.0118   32.2413 C   0  0  0  0  0  0  0  0  0  0  0  0
    4.5611   46.2042   32.1383 C   0  0  0  0  0  0  0  0  0  0  0  0
    3.4990   42.5943   32.0015 N   0  0  0  0  0  4  0  0  0  0  0  0
    2.3287   44.6284   32.7124 C   0  0  0  0  0  0  0  0  0  0  0  0
    3.3817   46.7991   32.5885 C   0  0  0  0  0  0  0  0  0  0  0  0
    4.0505   42.0861   30.8479 O   0  0  0  0  0  1  0  0  0  0  0  0
    2.8237   41.8377   32.7296 O   0  0  0  0  0  0  0  0  0  0  0  0
    2.2717   46.0116   32.8868 C   0  0  0  0  0  0  0  0  0  0  0  0
    8.8085   40.1914   34.2087 O   0  0  0  0  0  0  0  0  0  0  0  0
   11.2377   40.7906   33.3687 O   0  0  0  0  0  0  0  0  0  0  0  0
   10.9154   40.6898   31.9959 C   0  0  0  0  0  0  0  0  0  0  0  0
   11.5269   39.3898   31.4373 C   0  0  0  0  0  0  0  0  0  0  0  0
   12.7507   39.0916   32.0837 O   0  0  0  0  0  0  0  0  0  0  0  0
   10.6121   38.1916   31.6451 C   0  0  0  0  0  0  0  0  0  0  0  0
   12.9428   37.6853   32.0295 C   0  0  0  0  0  0  0  0  0  0  0  0
    9.6069   38.0858   30.6603 O   0  0  0  0  0  0  0  0  0  0  0  0
   11.5844   37.0186   31.6879 C   0  0  0  0  0  0  0  0  0  0  0  0
   13.4898   37.2163   33.3249 N   0  0  0  0  0  0  0  0  0  0  0  0
   11.6201   36.3063   30.4693 O   0  0  0  0  0  0  0  0  0  0  0  0
   14.4758   36.3263   33.5738 C   0  0  0  0  0  0  0  0  0  0  0  0
   13.1175   37.6308   34.5699 C   0  0  0  0  0  0  0  0  0  0  0  0
   15.2065   35.6139   32.6746 N   0  0  0  0  0  0  0  0  0  0  0  0
   14.6731   36.2267   34.9190 C   0  0  0  0  0  0  0  0  0  0  0  0
   13.8224   37.0450   35.5792 N   0  0  0  0  0  0  0  0  0  0  0  0
   16.1640   34.7596   33.1551 C   0  0  0  0  0  0  0  0  0  0  0  0
   15.6517   35.3489   35.4136 C   0  0  0  0  0  0  0  0  0  0  0  0
   16.3795   34.6310   34.5046 N   0  0  0  0  0  0  0  0  0  0  0  0
   15.9006   35.1931   36.8094 N   0  0  0  0  0  0  0  0  0  0  0  0
    9.8245   44.9993   32.1455 H   0  0  0  0  0  0  0  0  0  0  0  0
   10.9076   46.9084   32.9445 H   0  0  0  0  0  0  0  0  0  0  0  0
   11.1109   46.2832   34.4957 H   0  0  0  0  0  0  0  0  0  0  0  0
    8.5259   46.7438   33.5215 H   0  0  0  0  0  0  0  0  0  0  0  0
    8.7219   45.6945   34.9632 H   0  0  0  0  0  0  0  0  0  0  0  0
    6.0544   43.1389   31.8959 H   0  0  0  0  0  0  0  0  0  0  0  0
    6.0068   44.2024   30.4458 H   0  0  0  0  0  0  0  0  0  0  0  0
    5.4106   46.8383   31.9169 H   0  0  0  0  0  0  0  0  0  0  0  0
    1.4450   44.0376   32.9183 H   0  0  0  0  0  0  0  0  0  0  0  0
    3.3301   47.8734   32.7095 H   0  0  0  0  0  0  0  0  0  0  0  0
    1.3591   46.4752   33.2386 H   0  0  0  0  0  0  0  0  0  0  0  0
    9.8252   40.7190   31.7591 H   0  0  0  0  0  0  0  0  0  0  0  0
   11.3820   41.5526   31.4742 H   0  0  0  0  0  0  0  0  0  0  0  0
   11.7317   39.5338   30.3519 H   0  0  0  0  0  0  0  0  0  0  0  0
   10.1214   38.2683   32.6412 H   0  0  0  0  0  0  0  0  0  0  0  0
   13.6881   37.4707   31.2318 H   0  0  0  0  0  0  0  0  0  0  0  0
   10.0255   38.1752   29.7656 H   0  0  0  0  0  0  0  0  0  0  0  0
   11.2795   36.3124   32.4915 H   0  0  0  0  0  0  0  0  0  0  0  0
   11.9870   36.9099   29.7714 H   0  0  0  0  0  0  0  0  0  0  0  0
   12.3365   38.3596   34.7453 H   0  0  0  0  0  0  0  0  0  0  0  0
   16.7577   34.1794   32.4622 H   0  0  0  0  0  0  0  0  0  0  0  0
   15.3532   35.7351   37.5143 H   0  0  0  0  0  0  0  0  0  0  0  0
   16.6368   34.5316   37.1418 H   0  0  0  0  0  0  0  0  0  0  0  0
  1  2  2  0
  1  3  1  0
  3  4  1  0
  4  5  1  0
  6  1  1  0
  7  6  1  0
  6  8  1  0
  8  9  1  0
  9 10  1  0
  9 11  2  0
 10 12  1  0
 12 13  1  0
 13 14  2  0
 15 13  1  0
 14 16  1  0
 14 17  1  0
 18 15  2  0
 16 19  1  0
 16 20  2  0
 17 21  2  0
 21 18  1  0
  4 22  2  0
  4 23  1  0
 24 23  1  0
 24 25  1  0
 25 26  1  0
 25 27  1  0
 26 28  1  0
 27 29  1  0
 27 30  1  0
 30 28  1  0
 28 31  1  0
 30 32  1  0
 33 31  1  0
 34 31  1  0
 35 33  2  0
 33 36  1  0
 37 34  2  0
 38 35  1  0
 36 39  2  0
 36 37  1  0
 40 38  2  0
 40 39  1  0
 39 41  1  0
  6 42  1  6
  7 43  1  0
  7 44  1  0
  8 45  1  0
  8 46  1  0
 12 47  1  0
 12 48  1  0
 15 49  1  0
 17 50  1  0
 18 51  1  0
 21 52  1  0
 24 53  1  0
 24 54  1  0
 25 55  1  0
 27 56  1  0
 28 57  1  0
 29 58  1  0
 30 59  1  0
 32 60  1  0
 34 61  1  0
 38 62  1  0
 41 63  1  0
 41 64  1  0
M  CHG  3   5  -1  16   1  19  -1
M  END
>  <EmbedRMS>  (675) 
0.08694922652357563

$$$$

     RDKit          3D

 64 67  0  0  0  0  0  0  0  0999 V2000
   10.2791   43.7767   33.8115 C   0  0  0  0  0  0  0  0  0  0  0  0
   11.4027   43.5929   34.3664 O   0  0  0  0  0  0  0  0  0  0  0  0
    9.3705   42.7285   33.6939 O   0  0  0  0  0  0  0  0  0  0  0  0
    9.8872   41.2335   34.2827 P   0  0  0  0  0  5  0  0  0  0  0  0
   10.3662   41.4709   35.8735 O   0  0  0  0  0  1  0  0  0  0  0  0
    9.9421   45.1247   33.2655 C   0  0  2  0  0  0  0  0  0  0  0  0
   11.0844   46.0192   33.4626 N   0  0  0  0  0  0  0  0  0  0  0  0
    8.7020   45.7200   33.9703 C   0  0  0  0  0  0  0  0  0  0  0  0
    7.4312   44.9705   33.6553 C   0  0  0  0  0  0  0  0  0  0  0  0
    6.6989   45.1734   32.4762 O   0  0  0  0  0  0  0  0  0  0  0  0
    7.0173   44.1088   34.4751 O   0  0  0  0  0  0  0  0  0  0  0  0
    6.9185   46.2322   31.5424 C   0  0  0  0  0  0  0  0  0  0  0  0
    6.4749   47.5700   32.0981 C   0  0  0  0  0  0  0  0  0  0  0  0
    7.0740   48.7876   31.6828 C   0  0  0  0  0  0  0  0  0  0  0  0
    5.3439   47.6204   32.9369 C   0  0  0  0  0  0  0  0  0  0  0  0
    8.2006   48.8082   30.7954 N   0  0  0  0  0  4  0  0  0  0  0  0
    6.5468   50.0085   32.1363 C   0  0  0  0  0  0  0  0  0  0  0  0
    4.8444   48.8422   33.3905 C   0  0  0  0  0  0  0  0  0  0  0  0
    9.3738   48.1930   31.1639 O   0  0  0  0  0  1  0  0  0  0  0  0
    8.2131   49.5994   29.8300 O   0  0  0  0  0  0  0  0  0  0  0  0
    5.4453   50.0342   32.9917 C   0  0  0  0  0  0  0  0  0  0  0  0
    8.8090   40.1912   34.2077 O   0  0  0  0  0  0  0  0  0  0  0  0
   11.2385   40.7887   33.3676 O   0  0  0  0  0  0  0  0  0  0  0  0
   10.9165   40.6879   31.9945 C   0  0  0  0  0  0  0  0  0  0  0  0
   11.5265   39.3868   31.4360 C   0  0  0  0  0  0  0  0  0  0  0  0
   12.7496   39.0890   32.0814 O   0  0  0  0  0  0  0  0  0  0  0  0
   10.6125   38.1893   31.6460 C   0  0  0  0  0  0  0  0  0  0  0  0
   12.9374   37.6824   32.0300 C   0  0  0  0  0  0  0  0  0  0  0  0
    9.6150   38.0839   30.6538 O   0  0  0  0  0  0  0  0  0  0  0  0
   11.5793   37.0135   31.7013 C   0  0  0  0  0  0  0  0  0  0  0  0
   13.4907   37.2168   33.3242 N   0  0  0  0  0  0  0  0  0  0  0  0
   11.6215   36.3251   30.4725 O   0  0  0  0  0  0  0  0  0  0  0  0
   14.4764   36.3266   33.5731 C   0  0  0  0  0  0  0  0  0  0  0  0
   13.1181   37.6308   34.5693 C   0  0  0  0  0  0  0  0  0  0  0  0
   15.2066   35.6136   32.6740 N   0  0  0  0  0  0  0  0  0  0  0  0
   14.6736   36.2270   34.9185 C   0  0  0  0  0  0  0  0  0  0  0  0
   13.8229   37.0451   35.5787 N   0  0  0  0  0  0  0  0  0  0  0  0
   16.1639   34.7592   33.1547 C   0  0  0  0  0  0  0  0  0  0  0  0
   15.6519   35.3489   35.4132 C   0  0  0  0  0  0  0  0  0  0  0  0
   16.3795   34.6308   34.5042 N   0  0  0  0  0  0  0  0  0  0  0  0
   15.9006   35.1931   36.8090 N   0  0  0  0  0  0  0  0  0  0  0  0
    9.7431   45.0221   32.1761 H   0  0  0  0  0  0  0  0  0  0  0  0
   10.8430   46.9629   33.0828 H   0  0  0  0  0  0  0  0  0  0  0  0
   11.8770   45.6786   32.8695 H   0  0  0  0  0  0  0  0  0  0  0  0
    8.5754   46.7821   33.6771 H   0  0  0  0  0  0  0  0  0  0  0  0
    8.8674   45.7196   35.0707 H   0  0  0  0  0  0  0  0  0  0  0  0
    6.3143   46.0244   30.6351 H   0  0  0  0  0  0  0  0  0  0  0  0
    7.9773   46.2283   31.2288 H   0  0  0  0  0  0  0  0  0  0  0  0
    4.8365   46.7116   33.2354 H   0  0  0  0  0  0  0  0  0  0  0  0
    6.9988   50.9438   31.8303 H   0  0  0  0  0  0  0  0  0  0  0  0
    3.9803   48.8646   34.0419 H   0  0  0  0  0  0  0  0  0  0  0  0
    5.0518   50.9808   33.3391 H   0  0  0  0  0  0  0  0  0  0  0  0
   11.3843   41.5500   31.4727 H   0  0  0  0  0  0  0  0  0  0  0  0
    9.8264   40.7183   31.7574 H   0  0  0  0  0  0  0  0  0  0  0  0
   11.7294   39.5283   30.3498 H   0  0  0  0  0  0  0  0  0  0  0  0
   10.1143   38.2721   32.6379 H   0  0  0  0  0  0  0  0  0  0  0  0
   13.6726   37.4629   31.2239 H   0  0  0  0  0  0  0  0  0  0  0  0
   10.0535   38.1084   29.7638 H   0  0  0  0  0  0  0  0  0  0  0  0
   11.2645   36.3134   32.5107 H   0  0  0  0  0  0  0  0  0  0  0  0
   12.1546   35.5029   30.6316 H   0  0  0  0  0  0  0  0  0  0  0  0
   12.3362   38.3586   34.7449 H   0  0  0  0  0  0  0  0  0  0  0  0
   16.7574   34.1788   32.4619 H   0  0  0  0  0  0  0  0  0  0  0  0
   16.6366   34.5314   37.1415 H   0  0  0  0  0  0  0  0  0  0  0  0
   15.3533   35.7353   37.5139 H   0  0  0  0  0  0  0  0  0  0  0  0
  1  2  2  0
  1  3  1  0
  3  4  1  0
  4  5  1  0
  6  1  1  0
  7  6  1  0
  6  8  1  0
  8  9  1  0
  9 10  1  0
  9 11  2  0
 10 12  1  0
 12 13  1  0
 13 14  2  0
 15 13  1  0
 14 16  1  0
 14 17  1  0
 18 15  2  0
 16 19  1  0
 16 20  2  0
 17 21  2  0
 21 18  1  0
  4 22  2  0
  4 23  1  0
 24 23  1  0
 24 25  1  0
 25 26  1  0
 25 27  1  0
 26 28  1  0
 27 29  1  0
 27 30  1  0
 30 28  1  0
 28 31  1  0
 30 32  1  0
 33 31  1  0
 34 31  1  0
 35 33  2  0
 33 36  1  0
 37 34  2  0
 38 35  1  0
 36 39  2  0
 36 37  1  0
 40 38  2  0
 40 39  1  0
 39 41  1  0
  6 42  1  6
  7 43  1  0
  7 44  1  0
  8 45  1  0
  8 46  1  0
 12 47  1  0
 12 48  1  0
 15 49  1  0
 17 50  1  0
 18 51  1  0
 21 52  1  0
 24 53  1  0
 24 54  1  0
 25 55  1  0
 27 56  1  0
 28 57  1  0
 29 58  1  0
 30 59  1  0
 32 60  1  0
 34 61  1  0
 38 62  1  0
 41 63  1  0
 41 64  1  0
M  CHG  3   5  -1  16   1  19  -1
M  END
>  <EmbedRMS>  (676) 
0.08847719673846635

$$$$

     RDKit          3D

 64 67  0  0  0  0  0  0  0  0999 V2000
   10.2858   43.7720   33.8058 C   0  0  0  0  0  0  0  0  0  0  0  0
   11.4085   43.5877   34.3617 O   0  0  0  0  0  0  0  0  0  0  0  0
    9.3677   42.7307   33.6991 O   0  0  0  0  0  0  0  0  0  0  0  0
    9.8857   41.2337   34.2835 P   0  0  0  0  0  5  0  0  0  0  0  0
   10.3655   41.4696   35.8742 O   0  0  0  0  0  1  0  0  0  0  0  0
    9.9540   45.1148   33.2533 C   0  0  2  0  0  0  0  0  0  0  0  0
   11.0707   46.0345   33.4752 N   0  0  0  0  0  0  0  0  0  0  0  0
    8.6538   45.6737   33.8743 C   0  0  0  0  0  0  0  0  0  0  0  0
    8.7856   45.9972   35.3477 C   0  0  0  0  0  0  0  0  0  0  0  0
    8.5126   47.2639   35.8874 O   0  0  0  0  0  0  0  0  0  0  0  0
    9.1119   45.0766   36.1426 O   0  0  0  0  0  0  0  0  0  0  0  0
    8.0855   48.4132   35.1557 C   0  0  0  0  0  0  0  0  0  0  0  0
    9.2198   49.0115   34.3558 C   0  0  0  0  0  0  0  0  0  0  0  0
   10.4937   49.2764   34.9263 C   0  0  0  0  0  0  0  0  0  0  0  0
    9.0011   49.3095   32.9980 C   0  0  0  0  0  0  0  0  0  0  0  0
   10.7632   49.0454   36.3204 N   0  0  0  0  0  4  0  0  0  0  0  0
   11.5221   49.7738   34.1050 C   0  0  0  0  0  0  0  0  0  0  0  0
   10.0304   49.8183   32.2051 C   0  0  0  0  0  0  0  0  0  0  0  0
    9.8359   49.3857   37.2777 O   0  0  0  0  0  1  0  0  0  0  0  0
   11.9034   48.6935   36.6873 O   0  0  0  0  0  0  0  0  0  0  0  0
   11.2905   50.0425   32.7555 C   0  0  0  0  0  0  0  0  0  0  0  0
    8.8081   40.1909   34.2076 O   0  0  0  0  0  0  0  0  0  0  0  0
   11.2383   40.7899   33.3684 O   0  0  0  0  0  0  0  0  0  0  0  0
   10.9189   40.6887   31.9947 C   0  0  0  0  0  0  0  0  0  0  0  0
   11.5181   39.3800   31.4397 C   0  0  0  0  0  0  0  0  0  0  0  0
   12.7485   39.0875   32.0749 O   0  0  0  0  0  0  0  0  0  0  0  0
   10.6054   38.1875   31.6656 C   0  0  0  0  0  0  0  0  0  0  0  0
   12.9361   37.6816   32.0288 C   0  0  0  0  0  0  0  0  0  0  0  0
    9.6423   38.0738   30.6445 O   0  0  0  0  0  0  0  0  0  0  0  0
   11.5765   37.0158   31.7046 C   0  0  0  0  0  0  0  0  0  0  0  0
   13.4908   37.2182   33.3237 N   0  0  0  0  0  0  0  0  0  0  0  0
   11.6102   36.3399   30.4680 O   0  0  0  0  0  0  0  0  0  0  0  0
   14.4762   36.3273   33.5728 C   0  0  0  0  0  0  0  0  0  0  0  0
   13.1181   37.6318   34.5689 C   0  0  0  0  0  0  0  0  0  0  0  0
   15.2063   35.6140   32.6739 N   0  0  0  0  0  0  0  0  0  0  0  0
   14.6733   36.2275   34.9182 C   0  0  0  0  0  0  0  0  0  0  0  0
   13.8226   37.0457   35.5783 N   0  0  0  0  0  0  0  0  0  0  0  0
   16.1636   34.7595   33.1546 C   0  0  0  0  0  0  0  0  0  0  0  0
   15.6515   35.3492   35.4130 C   0  0  0  0  0  0  0  0  0  0  0  0
   16.3791   34.6310   34.5041 N   0  0  0  0  0  0  0  0  0  0  0  0
   15.9002   35.1933   36.8089 N   0  0  0  0  0  0  0  0  0  0  0  0
    9.7918   44.9972   32.1580 H   0  0  0  0  0  0  0  0  0  0  0  0
   10.8267   46.9512   33.0372 H   0  0  0  0  0  0  0  0  0  0  0  0
   11.8983   45.6880   32.9362 H   0  0  0  0  0  0  0  0  0  0  0  0
    7.8325   44.9355   33.7483 H   0  0  0  0  0  0  0  0  0  0  0  0
    8.3518   46.5642   33.2921 H   0  0  0  0  0  0  0  0  0  0  0  0
    7.2145   48.1471   34.5182 H   0  0  0  0  0  0  0  0  0  0  0  0
    7.7187   49.1769   35.8717 H   0  0  0  0  0  0  0  0  0  0  0  0
    8.0338   49.1320   32.5444 H   0  0  0  0  0  0  0  0  0  0  0  0
   12.5033   49.9732   34.5170 H   0  0  0  0  0  0  0  0  0  0  0  0
    9.8516   50.0331   31.1594 H   0  0  0  0  0  0  0  0  0  0  0  0
   12.0885   50.4328   32.1371 H   0  0  0  0  0  0  0  0  0  0  0  0
    9.8310   40.7374   31.7549 H   0  0  0  0  0  0  0  0  0  0  0  0
   11.3994   41.5435   31.4724 H   0  0  0  0  0  0  0  0  0  0  0  0
   11.7003   39.5045   30.3472 H   0  0  0  0  0  0  0  0  0  0  0  0
   10.1104   38.2619   32.6636 H   0  0  0  0  0  0  0  0  0  0  0  0
   13.6696   37.4586   31.2222 H   0  0  0  0  0  0  0  0  0  0  0  0
    8.9000   38.6882   30.8814 H   0  0  0  0  0  0  0  0  0  0  0  0
   11.2690   36.3069   32.5091 H   0  0  0  0  0  0  0  0  0  0  0  0
   12.1426   35.5150   30.6153 H   0  0  0  0  0  0  0  0  0  0  0  0
   12.3359   38.3593   34.7445 H   0  0  0  0  0  0  0  0  0  0  0  0
   16.7569   34.1789   32.4618 H   0  0  0  0  0  0  0  0  0  0  0  0
   15.3530   35.7356   37.5138 H   0  0  0  0  0  0  0  0  0  0  0  0
   16.6362   34.5315   37.1414 H   0  0  0  0  0  0  0  0  0  0  0  0
  1  2  2  0
  1  3  1  0
  3  4  1  0
  4  5  1  0
  6  1  1  0
  7  6  1  0
  6  8  1  0
  8  9  1  0
  9 10  1  0
  9 11  2  0
 10 12  1  0
 12 13  1  0
 13 14  2  0
 15 13  1  0
 14 16  1  0
 14 17  1  0
 18 15  2  0
 16 19  1  0
 16 20  2  0
 17 21  2  0
 21 18  1  0
  4 22  2  0
  4 23  1  0
 24 23  1  0
 24 25  1  0
 25 26  1  0
 25 27  1  0
 26 28  1  0
 27 29  1  0
 27 30  1  0
 30 28  1  0
 28 31  1  0
 30 32  1  0
 33 31  1  0
 34 31  1  0
 35 33  2  0
 33 36  1  0
 37 34  2  0
 38 35  1  0
 36 39  2  0
 36 37  1  0
 40 38  2  0
 40 39  1  0
 39 41  1  0
  6 42  1  6
  7 43  1  0
  7 44  1  0
  8 45  1  0
  8 46  1  0
 12 47  1  0
 12 48  1  0
 15 49  1  0
 17 50  1  0
 18 51  1  0
 21 52  1  0
 24 53  1  0
 24 54  1  0
 25 55  1  0
 27 56  1  0
 28 57  1  0
 29 58  1  0
 30 59  1  0
 32 60  1  0
 34 61  1  0
 38 62  1  0
 41 63  1  0
 41 64  1  0
M  CHG  3   5  -1  16   1  19  -1
M  END
>  <EmbedRMS>  (677) 
0.08939025879741669

$$$$

     RDKit          3D

 64 67  0  0  0  0  0  0  0  0999 V2000
   10.2863   43.7718   33.8041 C   0  0  0  0  0  0  0  0  0  0  0  0
   11.4087   43.5883   34.3607 O   0  0  0  0  0  0  0  0  0  0  0  0
    9.3676   42.7308   33.6991 O   0  0  0  0  0  0  0  0  0  0  0  0
    9.8854   41.2342   34.2844 P   0  0  0  0  0  5  0  0  0  0  0  0
   10.3650   41.4704   35.8751 O   0  0  0  0  0  1  0  0  0  0  0  0
    9.9528   45.1149   33.2536 C   0  0  2  0  0  0  0  0  0  0  0  0
   11.0711   46.0333   33.4770 N   0  0  0  0  0  0  0  0  0  0  0  0
    8.6605   45.6655   33.8902 C   0  0  0  0  0  0  0  0  0  0  0  0
    8.7926   45.8572   35.3719 C   0  0  0  0  0  0  0  0  0  0  0  0
    9.3479   47.0430   35.8651 O   0  0  0  0  0  0  0  0  0  0  0  0
    8.4353   44.9365   36.1558 O   0  0  0  0  0  0  0  0  0  0  0  0
    9.5512   47.2989   37.2541 C   0  0  0  0  0  0  0  0  0  0  0  0
    8.2307   47.4639   37.9720 C   0  0  0  0  0  0  0  0  0  0  0  0
    7.9205   46.7779   39.1753 C   0  0  0  0  0  0  0  0  0  0  0  0
    7.3206   48.4124   37.4709 C   0  0  0  0  0  0  0  0  0  0  0  0
    8.8033   45.7944   39.7349 N   0  0  0  0  0  4  0  0  0  0  0  0
    6.7168   47.0669   39.8415 C   0  0  0  0  0  0  0  0  0  0  0  0
    6.1223   48.6730   38.1373 C   0  0  0  0  0  0  0  0  0  0  0  0
    9.1921   44.7118   38.9809 O   0  0  0  0  0  1  0  0  0  0  0  0
    9.0114   45.7765   40.9656 O   0  0  0  0  0  0  0  0  0  0  0  0
    5.8223   48.0037   39.3223 C   0  0  0  0  0  0  0  0  0  0  0  0
    8.8081   40.1912   34.2082 O   0  0  0  0  0  0  0  0  0  0  0  0
   11.2382   40.7903   33.3698 O   0  0  0  0  0  0  0  0  0  0  0  0
   10.9190   40.6905   31.9963 C   0  0  0  0  0  0  0  0  0  0  0  0
   11.5176   39.3824   31.4412 C   0  0  0  0  0  0  0  0  0  0  0  0
   12.7495   39.0892   32.0755 O   0  0  0  0  0  0  0  0  0  0  0  0
   10.6036   38.1900   31.6660 C   0  0  0  0  0  0  0  0  0  0  0  0
   12.9401   37.6833   32.0276 C   0  0  0  0  0  0  0  0  0  0  0  0
    9.6377   38.0785   30.6474 O   0  0  0  0  0  0  0  0  0  0  0  0
   11.5803   37.0204   31.6937 C   0  0  0  0  0  0  0  0  0  0  0  0
   13.4902   37.2177   33.3237 N   0  0  0  0  0  0  0  0  0  0  0  0
   11.6117   36.3193   30.4680 O   0  0  0  0  0  0  0  0  0  0  0  0
   14.4759   36.3271   33.5731 C   0  0  0  0  0  0  0  0  0  0  0  0
   13.1176   37.6317   34.5688 C   0  0  0  0  0  0  0  0  0  0  0  0
   15.2064   35.6141   32.6742 N   0  0  0  0  0  0  0  0  0  0  0  0
   14.6729   36.2274   34.9184 C   0  0  0  0  0  0  0  0  0  0  0  0
   13.8221   37.0457   35.5783 N   0  0  0  0  0  0  0  0  0  0  0  0
   16.1637   34.7597   33.1549 C   0  0  0  0  0  0  0  0  0  0  0  0
   15.6514   35.3493   35.4133 C   0  0  0  0  0  0  0  0  0  0  0  0
   16.3791   34.6312   34.5044 N   0  0  0  0  0  0  0  0  0  0  0  0
   15.9001   35.1935   36.8091 N   0  0  0  0  0  0  0  0  0  0  0  0
    9.7827   45.0061   32.1588 H   0  0  0  0  0  0  0  0  0  0  0  0
   11.8824   45.7128   32.8985 H   0  0  0  0  0  0  0  0  0  0  0  0
   10.8097   46.9718   33.0958 H   0  0  0  0  0  0  0  0  0  0  0  0
    8.4061   46.6414   33.4234 H   0  0  0  0  0  0  0  0  0  0  0  0
    7.8134   44.9767   33.6780 H   0  0  0  0  0  0  0  0  0  0  0  0
   10.1193   48.2476   37.3538 H   0  0  0  0  0  0  0  0  0  0  0  0
   10.1909   46.5051   37.6852 H   0  0  0  0  0  0  0  0  0  0  0  0
    7.5461   48.9612   36.5646 H   0  0  0  0  0  0  0  0  0  0  0  0
    6.4651   46.5516   40.7600 H   0  0  0  0  0  0  0  0  0  0  0  0
    5.4300   49.4037   37.7392 H   0  0  0  0  0  0  0  0  0  0  0  0
    4.8951   48.2115   39.8406 H   0  0  0  0  0  0  0  0  0  0  0  0
   11.4001   41.5454   31.4749 H   0  0  0  0  0  0  0  0  0  0  0  0
    9.8312   40.7398   31.7560 H   0  0  0  0  0  0  0  0  0  0  0  0
   11.6990   39.5092   30.3489 H   0  0  0  0  0  0  0  0  0  0  0  0
   10.1130   38.2589   32.6664 H   0  0  0  0  0  0  0  0  0  0  0  0
   13.6800   37.4626   31.2265 H   0  0  0  0  0  0  0  0  0  0  0  0
    8.8953   38.6909   30.8891 H   0  0  0  0  0  0  0  0  0  0  0  0
   11.2830   36.3060   32.4929 H   0  0  0  0  0  0  0  0  0  0  0  0
   11.8859   36.9589   29.7593 H   0  0  0  0  0  0  0  0  0  0  0  0
   12.3360   38.3600   34.7441 H   0  0  0  0  0  0  0  0  0  0  0  0
   16.7572   34.1793   32.4621 H   0  0  0  0  0  0  0  0  0  0  0  0
   15.3528   35.7357   37.5140 H   0  0  0  0  0  0  0  0  0  0  0  0
   16.6362   34.5318   37.1416 H   0  0  0  0  0  0  0  0  0  0  0  0
  1  2  2  0
  1  3  1  0
  3  4  1  0
  4  5  1  0
  6  1  1  0
  7  6  1  0
  6  8  1  0
  8  9  1  0
  9 10  1  0
  9 11  2  0
 10 12  1  0
 12 13  1  0
 13 14  2  0
 15 13  1  0
 14 16  1  0
 14 17  1  0
 18 15  2  0
 16 19  1  0
 16 20  2  0
 17 21  2  0
 21 18  1  0
  4 22  2  0
  4 23  1  0
 24 23  1  0
 24 25  1  0
 25 26  1  0
 25 27  1  0
 26 28  1  0
 27 29  1  0
 27 30  1  0
 30 28  1  0
 28 31  1  0
 30 32  1  0
 33 31  1  0
 34 31  1  0
 35 33  2  0
 33 36  1  0
 37 34  2  0
 38 35  1  0
 36 39  2  0
 36 37  1  0
 40 38  2  0
 40 39  1  0
 39 41  1  0
  6 42  1  6
  7 43  1  0
  7 44  1  0
  8 45  1  0
  8 46  1  0
 12 47  1  0
 12 48  1  0
 15 49  1  0
 17 50  1  0
 18 51  1  0
 21 52  1  0
 24 53  1  0
 24 54  1  0
 25 55  1  0
 27 56  1  0
 28 57  1  0
 29 58  1  0
 30 59  1  0
 32 60  1  0
 34 61  1  0
 38 62  1  0
 41 63  1  0
 41 64  1  0
M  CHG  3   5  -1  16   1  19  -1
M  END
>  <EmbedRMS>  (678) 
0.08833094344223297

$$$$

     RDKit          3D

 64 67  0  0  0  0  0  0  0  0999 V2000
   10.2850   43.7725   33.8068 C   0  0  0  0  0  0  0  0  0  0  0  0
   11.4105   43.5875   34.3564 O   0  0  0  0  0  0  0  0  0  0  0  0
    9.3668   42.7311   33.7012 O   0  0  0  0  0  0  0  0  0  0  0  0
    9.8857   41.2339   34.2841 P   0  0  0  0  0  5  0  0  0  0  0  0
   10.3657   41.4695   35.8747 O   0  0  0  0  0  1  0  0  0  0  0  0
    9.9583   45.1106   33.2437 C   0  0  2  0  0  0  0  0  0  0  0  0
   11.0674   46.0367   33.4847 N   0  0  0  0  0  0  0  0  0  0  0  0
    8.6198   45.6576   33.7894 C   0  0  0  0  0  0  0  0  0  0  0  0
    8.6112   45.8090   35.2817 C   0  0  0  0  0  0  0  0  0  0  0  0
    8.9637   47.0378   35.8506 O   0  0  0  0  0  0  0  0  0  0  0  0
    8.3119   44.8237   36.0105 O   0  0  0  0  0  0  0  0  0  0  0  0
    8.9714   47.2743   37.2571 C   0  0  0  0  0  0  0  0  0  0  0  0
    7.5642   47.2753   37.8099 C   0  0  0  0  0  0  0  0  0  0  0  0
    6.5405   48.1079   37.2791 C   0  0  0  0  0  0  0  0  0  0  0  0
    7.2536   46.3890   38.8578 C   0  0  0  0  0  0  0  0  0  0  0  0
    6.7909   49.0474   36.2174 N   0  0  0  0  0  4  0  0  0  0  0  0
    5.2360   47.9990   37.7932 C   0  0  0  0  0  0  0  0  0  0  0  0
    5.9556   46.3096   39.3631 C   0  0  0  0  0  0  0  0  0  0  0  0
    5.7836   49.3752   35.3391 O   0  0  0  0  0  1  0  0  0  0  0  0
    7.8568   49.6946   36.1743 O   0  0  0  0  0  0  0  0  0  0  0  0
    4.9480   47.1094   38.8288 C   0  0  0  0  0  0  0  0  0  0  0  0
    8.8082   40.1910   34.2080 O   0  0  0  0  0  0  0  0  0  0  0  0
   11.2384   40.7903   33.3688 O   0  0  0  0  0  0  0  0  0  0  0  0
   10.9193   40.6895   31.9950 C   0  0  0  0  0  0  0  0  0  0  0  0
   11.5170   39.3802   31.4398 C   0  0  0  0  0  0  0  0  0  0  0  0
   12.7478   39.0862   32.0734 O   0  0  0  0  0  0  0  0  0  0  0  0
   10.6031   38.1891   31.6666 C   0  0  0  0  0  0  0  0  0  0  0  0
   12.9335   37.6797   32.0279 C   0  0  0  0  0  0  0  0  0  0  0  0
    9.6397   38.0777   30.6456 O   0  0  0  0  0  0  0  0  0  0  0  0
   11.5739   37.0154   31.7057 C   0  0  0  0  0  0  0  0  0  0  0  0
   13.4903   37.2178   33.3231 N   0  0  0  0  0  0  0  0  0  0  0  0
   11.6210   36.3376   30.4695 O   0  0  0  0  0  0  0  0  0  0  0  0
   14.4761   36.3273   33.5725 C   0  0  0  0  0  0  0  0  0  0  0  0
   13.1178   37.6316   34.5684 C   0  0  0  0  0  0  0  0  0  0  0  0
   15.2063   35.6139   32.6737 N   0  0  0  0  0  0  0  0  0  0  0  0
   14.6733   36.2277   34.9179 C   0  0  0  0  0  0  0  0  0  0  0  0
   13.8225   37.0458   35.5779 N   0  0  0  0  0  0  0  0  0  0  0  0
   16.1636   34.7595   33.1546 C   0  0  0  0  0  0  0  0  0  0  0  0
   15.6515   35.3494   35.4129 C   0  0  0  0  0  0  0  0  0  0  0  0
   16.3791   34.6311   34.5041 N   0  0  0  0  0  0  0  0  0  0  0  0
   15.9001   35.1935   36.8088 N   0  0  0  0  0  0  0  0  0  0  0  0
    9.8488   44.9835   32.1443 H   0  0  0  0  0  0  0  0  0  0  0  0
   11.1601   46.2300   34.5085 H   0  0  0  0  0  0  0  0  0  0  0  0
   10.8530   46.9459   33.0140 H   0  0  0  0  0  0  0  0  0  0  0  0
    8.4104   46.6455   33.3255 H   0  0  0  0  0  0  0  0  0  0  0  0
    7.7916   44.9795   33.4878 H   0  0  0  0  0  0  0  0  0  0  0  0
    9.6072   46.5069   37.7512 H   0  0  0  0  0  0  0  0  0  0  0  0
    9.4478   48.2547   37.4619 H   0  0  0  0  0  0  0  0  0  0  0  0
    8.0159   45.7456   39.2797 H   0  0  0  0  0  0  0  0  0  0  0  0
    4.4395   48.6187   37.4012 H   0  0  0  0  0  0  0  0  0  0  0  0
    5.7294   45.6206   40.1667 H   0  0  0  0  0  0  0  0  0  0  0  0
    3.9409   47.0425   39.2198 H   0  0  0  0  0  0  0  0  0  0  0  0
    9.8314   40.7396   31.7551 H   0  0  0  0  0  0  0  0  0  0  0  0
   11.4009   41.5438   31.4730 H   0  0  0  0  0  0  0  0  0  0  0  0
   11.6981   39.5044   30.3471 H   0  0  0  0  0  0  0  0  0  0  0  0
   10.1090   38.2631   32.6650 H   0  0  0  0  0  0  0  0  0  0  0  0
   13.6655   37.4541   31.2207 H   0  0  0  0  0  0  0  0  0  0  0  0
    8.8965   38.6900   30.8852 H   0  0  0  0  0  0  0  0  0  0  0  0
   11.2846   36.3060   32.5175 H   0  0  0  0  0  0  0  0  0  0  0  0
   10.8523   35.7095   30.4590 H   0  0  0  0  0  0  0  0  0  0  0  0
   12.3352   38.3587   34.7440 H   0  0  0  0  0  0  0  0  0  0  0  0
   16.7570   34.1788   32.4619 H   0  0  0  0  0  0  0  0  0  0  0  0
   15.3529   35.7359   37.5136 H   0  0  0  0  0  0  0  0  0  0  0  0
   16.6359   34.5317   37.1413 H   0  0  0  0  0  0  0  0  0  0  0  0
  1  2  2  0
  1  3  1  0
  3  4  1  0
  4  5  1  0
  6  1  1  0
  7  6  1  0
  6  8  1  0
  8  9  1  0
  9 10  1  0
  9 11  2  0
 10 12  1  0
 12 13  1  0
 13 14  2  0
 15 13  1  0
 14 16  1  0
 14 17  1  0
 18 15  2  0
 16 19  1  0
 16 20  2  0
 17 21  2  0
 21 18  1  0
  4 22  2  0
  4 23  1  0
 24 23  1  0
 24 25  1  0
 25 26  1  0
 25 27  1  0
 26 28  1  0
 27 29  1  0
 27 30  1  0
 30 28  1  0
 28 31  1  0
 30 32  1  0
 33 31  1  0
 34 31  1  0
 35 33  2  0
 33 36  1  0
 37 34  2  0
 38 35  1  0
 36 39  2  0
 36 37  1  0
 40 38  2  0
 40 39  1  0
 39 41  1  0
  6 42  1  6
  7 43  1  0
  7 44  1  0
  8 45  1  0
  8 46  1  0
 12 47  1  0
 12 48  1  0
 15 49  1  0
 17 50  1  0
 18 51  1  0
 21 52  1  0
 24 53  1  0
 24 54  1  0
 25 55  1  0
 27 56  1  0
 28 57  1  0
 29 58  1  0
 30 59  1  0
 32 60  1  0
 34 61  1  0
 38 62  1  0
 41 63  1  0
 41 64  1  0
M  CHG  3   5  -1  16   1  19  -1
M  END
>  <EmbedRMS>  (679) 
0.08933824604048918

$$$$

     RDKit          3D

 64 67  0  0  0  0  0  0  0  0999 V2000
   10.2862   43.7710   33.8098 C   0  0  0  0  0  0  0  0  0  0  0  0
   11.4100   43.5818   34.3616 O   0  0  0  0  0  0  0  0  0  0  0  0
    9.3669   42.7308   33.7017 O   0  0  0  0  0  0  0  0  0  0  0  0
    9.8847   41.2329   34.2841 P   0  0  0  0  0  5  0  0  0  0  0  0
   10.3655   41.4677   35.8747 O   0  0  0  0  0  1  0  0  0  0  0  0
    9.9605   45.1125   33.2475 C   0  0  2  0  0  0  0  0  0  0  0  0
   11.0658   46.0478   33.4747 N   0  0  0  0  0  0  0  0  0  0  0  0
    8.6647   45.6566   33.8724 C   0  0  0  0  0  0  0  0  0  0  0  0
    8.2795   46.9663   33.2578 C   0  0  0  0  0  0  0  0  0  0  0  0
    8.8096   48.1497   33.7784 O   0  0  0  0  0  0  0  0  0  0  0  0
    7.5183   46.9888   32.2522 O   0  0  0  0  0  0  0  0  0  0  0  0
    8.5295   49.4314   33.2215 C   0  0  0  0  0  0  0  0  0  0  0  0
    9.2949   50.5146   33.9479 C   0  0  0  0  0  0  0  0  0  0  0  0
    8.8112   51.8494   34.0158 C   0  0  0  0  0  0  0  0  0  0  0  0
   10.5342   50.2068   34.5447 C   0  0  0  0  0  0  0  0  0  0  0  0
    7.6084   52.2575   33.3407 N   0  0  0  0  0  4  0  0  0  0  0  0
    9.5325   52.8050   34.7528 C   0  0  0  0  0  0  0  0  0  0  0  0
   11.2442   51.1762   35.2544 C   0  0  0  0  0  0  0  0  0  0  0  0
    6.8325   53.2636   33.8690 O   0  0  0  0  0  1  0  0  0  0  0  0
    7.3632   51.8540   32.1851 O   0  0  0  0  0  0  0  0  0  0  0  0
   10.7384   52.4691   35.3687 C   0  0  0  0  0  0  0  0  0  0  0  0
    8.8070   40.1904   34.2081 O   0  0  0  0  0  0  0  0  0  0  0  0
   11.2368   40.7895   33.3683 O   0  0  0  0  0  0  0  0  0  0  0  0
   10.9159   40.6888   31.9950 C   0  0  0  0  0  0  0  0  0  0  0  0
   11.5251   39.3872   31.4364 C   0  0  0  0  0  0  0  0  0  0  0  0
   12.7486   39.0879   32.0803 O   0  0  0  0  0  0  0  0  0  0  0  0
   10.6100   38.1909   31.6470 C   0  0  0  0  0  0  0  0  0  0  0  0
   12.9348   37.6808   32.0292 C   0  0  0  0  0  0  0  0  0  0  0  0
    9.6126   38.0874   30.6546 O   0  0  0  0  0  0  0  0  0  0  0  0
   11.5767   37.0133   31.7025 C   0  0  0  0  0  0  0  0  0  0  0  0
   13.4901   37.2165   33.3236 N   0  0  0  0  0  0  0  0  0  0  0  0
   11.6322   36.3231   30.4741 O   0  0  0  0  0  0  0  0  0  0  0  0
   14.4763   36.3266   33.5727 C   0  0  0  0  0  0  0  0  0  0  0  0
   13.1179   37.6307   34.5689 C   0  0  0  0  0  0  0  0  0  0  0  0
   15.2065   35.6135   32.6738 N   0  0  0  0  0  0  0  0  0  0  0  0
   14.6736   36.2272   34.9182 C   0  0  0  0  0  0  0  0  0  0  0  0
   13.8228   37.0453   35.5783 N   0  0  0  0  0  0  0  0  0  0  0  0
   16.1640   34.7592   33.1547 C   0  0  0  0  0  0  0  0  0  0  0  0
   15.6518   35.3491   35.4131 C   0  0  0  0  0  0  0  0  0  0  0  0
   16.3795   34.6309   34.5042 N   0  0  0  0  0  0  0  0  0  0  0  0
   15.9004   35.1933   36.8089 N   0  0  0  0  0  0  0  0  0  0  0  0
    9.8087   44.9960   32.1514 H   0  0  0  0  0  0  0  0  0  0  0  0
   11.9226   45.7012   32.9840 H   0  0  0  0  0  0  0  0  0  0  0  0
   11.2742   46.1207   34.4981 H   0  0  0  0  0  0  0  0  0  0  0  0
    7.8355   44.9311   33.7197 H   0  0  0  0  0  0  0  0  0  0  0  0
    8.7978   45.7930   34.9680 H   0  0  0  0  0  0  0  0  0  0  0  0
    7.4363   49.6093   33.3078 H   0  0  0  0  0  0  0  0  0  0  0  0
    8.8214   49.4445   32.1493 H   0  0  0  0  0  0  0  0  0  0  0  0
   10.9528   49.2108   34.4723 H   0  0  0  0  0  0  0  0  0  0  0  0
    9.1737   53.8238   34.8271 H   0  0  0  0  0  0  0  0  0  0  0  0
   12.1883   50.9227   35.7191 H   0  0  0  0  0  0  0  0  0  0  0  0
   11.2899   53.2180   35.9224 H   0  0  0  0  0  0  0  0  0  0  0  0
    9.8259   40.7204   31.7574 H   0  0  0  0  0  0  0  0  0  0  0  0
   11.3848   41.5506   31.4736 H   0  0  0  0  0  0  0  0  0  0  0  0
   11.7273   39.5286   30.3501 H   0  0  0  0  0  0  0  0  0  0  0  0
   10.1122   38.2731   32.6390 H   0  0  0  0  0  0  0  0  0  0  0  0
   13.6685   37.4591   31.2224 H   0  0  0  0  0  0  0  0  0  0  0  0
   10.0514   38.1109   29.7647 H   0  0  0  0  0  0  0  0  0  0  0  0
   11.2802   36.3128   32.5195 H   0  0  0  0  0  0  0  0  0  0  0  0
   10.8625   35.6960   30.4645 H   0  0  0  0  0  0  0  0  0  0  0  0
   12.3356   38.3581   34.7445 H   0  0  0  0  0  0  0  0  0  0  0  0
   16.7574   34.1787   32.4619 H   0  0  0  0  0  0  0  0  0  0  0  0
   16.6364   34.5315   37.1415 H   0  0  0  0  0  0  0  0  0  0  0  0
   15.3531   35.7355   37.5138 H   0  0  0  0  0  0  0  0  0  0  0  0
  1  2  2  0
  1  3  1  0
  3  4  1  0
  4  5  1  0
  6  1  1  0
  7  6  1  0
  6  8  1  0
  8  9  1  0
  9 10  1  0
  9 11  2  0
 10 12  1  0
 12 13  1  0
 13 14  2  0
 15 13  1  0
 14 16  1  0
 14 17  1  0
 18 15  2  0
 16 19  1  0
 16 20  2  0
 17 21  2  0
 21 18  1  0
  4 22  2  0
  4 23  1  0
 24 23  1  0
 24 25  1  0
 25 26  1  0
 25 27  1  0
 26 28  1  0
 27 29  1  0
 27 30  1  0
 30 28  1  0
 28 31  1  0
 30 32  1  0
 33 31  1  0
 34 31  1  0
 35 33  2  0
 33 36  1  0
 37 34  2  0
 38 35  1  0
 36 39  2  0
 36 37  1  0
 40 38  2  0
 40 39  1  0
 39 41  1  0
  6 42  1  6
  7 43  1  0
  7 44  1  0
  8 45  1  0
  8 46  1  0
 12 47  1  0
 12 48  1  0
 15 49  1  0
 17 50  1  0
 18 51  1  0
 21 52  1  0
 24 53  1  0
 24 54  1  0
 25 55  1  0
 27 56  1  0
 28 57  1  0
 29 58  1  0
 30 59  1  0
 32 60  1  0
 34 61  1  0
 38 62  1  0
 41 63  1  0
 41 64  1  0
M  CHG  3   5  -1  16   1  19  -1
M  END
>  <EmbedRMS>  (680) 
0.08865944832566132

$$$$

     RDKit          3D

 64 67  0  0  0  0  0  0  0  0999 V2000
   10.2870   43.7701   33.7996 C   0  0  0  0  0  0  0  0  0  0  0  0
   11.4105   43.5848   34.3530 O   0  0  0  0  0  0  0  0  0  0  0  0
    9.3667   42.7306   33.6981 O   0  0  0  0  0  0  0  0  0  0  0  0
    9.8850   41.2346   34.2849 P   0  0  0  0  0  5  0  0  0  0  0  0
   10.3659   41.4725   35.8751 O   0  0  0  0  0  1  0  0  0  0  0  0
    9.9540   45.1152   33.2512 C   0  0  2  0  0  0  0  0  0  0  0  0
   11.0690   46.0344   33.4866 N   0  0  0  0  0  0  0  0  0  0  0  0
    8.6536   45.6632   33.8768 C   0  0  0  0  0  0  0  0  0  0  0  0
    8.7142   45.7030   35.3753 C   0  0  0  0  0  0  0  0  0  0  0  0
    9.5357   46.6408   36.0098 O   0  0  0  0  0  0  0  0  0  0  0  0
    8.0593   44.8611   36.0476 O   0  0  0  0  0  0  0  0  0  0  0  0
    9.8148   46.6176   37.4090 C   0  0  0  0  0  0  0  0  0  0  0  0
   10.6544   45.4095   37.7612 C   0  0  0  0  0  0  0  0  0  0  0  0
   10.3003   44.4916   38.7860 C   0  0  0  0  0  0  0  0  0  0  0  0
   11.8738   45.2374   37.0814 C   0  0  0  0  0  0  0  0  0  0  0  0
    9.0764   44.6096   39.5261 N   0  0  0  0  0  4  0  0  0  0  0  0
   11.1765   43.4386   39.0984 C   0  0  0  0  0  0  0  0  0  0  0  0
   12.7215   44.1737   37.3931 C   0  0  0  0  0  0  0  0  0  0  0  0
    9.0803   44.3841   40.8832 O   0  0  0  0  0  1  0  0  0  0  0  0
    7.9828   44.6448   38.9264 O   0  0  0  0  0  0  0  0  0  0  0  0
   12.3741   43.2765   38.4008 C   0  0  0  0  0  0  0  0  0  0  0  0
    8.8077   40.1915   34.2102 O   0  0  0  0  0  0  0  0  0  0  0  0
   11.2366   40.7895   33.3690 O   0  0  0  0  0  0  0  0  0  0  0  0
   10.9152   40.6882   31.9958 C   0  0  0  0  0  0  0  0  0  0  0  0
   11.5260   39.3873   31.4368 C   0  0  0  0  0  0  0  0  0  0  0  0
   12.7491   39.0894   32.0820 O   0  0  0  0  0  0  0  0  0  0  0  0
   10.6123   38.1894   31.6462 C   0  0  0  0  0  0  0  0  0  0  0  0
   12.9373   37.6828   32.0302 C   0  0  0  0  0  0  0  0  0  0  0  0
    9.6151   38.0839   30.6538 O   0  0  0  0  0  0  0  0  0  0  0  0
   11.5793   37.0137   31.7014 C   0  0  0  0  0  0  0  0  0  0  0  0
   13.4906   37.2170   33.3243 N   0  0  0  0  0  0  0  0  0  0  0  0
   11.6217   36.3253   30.4725 O   0  0  0  0  0  0  0  0  0  0  0  0
   14.4763   36.3267   33.5731 C   0  0  0  0  0  0  0  0  0  0  0  0
   13.1182   37.6310   34.5695 C   0  0  0  0  0  0  0  0  0  0  0  0
   15.2065   35.6137   32.6740 N   0  0  0  0  0  0  0  0  0  0  0  0
   14.6735   36.2270   34.9185 C   0  0  0  0  0  0  0  0  0  0  0  0
   13.8229   37.0452   35.5788 N   0  0  0  0  0  0  0  0  0  0  0  0
   16.1639   34.7593   33.1547 C   0  0  0  0  0  0  0  0  0  0  0  0
   15.6518   35.3489   35.4132 C   0  0  0  0  0  0  0  0  0  0  0  0
   16.3794   34.6308   34.5042 N   0  0  0  0  0  0  0  0  0  0  0  0
   15.9006   35.1931   36.8090 N   0  0  0  0  0  0  0  0  0  0  0  0
    9.7950   45.0113   32.1543 H   0  0  0  0  0  0  0  0  0  0  0  0
   10.8133   46.9724   33.1007 H   0  0  0  0  0  0  0  0  0  0  0  0
   11.8882   45.7135   32.9195 H   0  0  0  0  0  0  0  0  0  0  0  0
    8.4570   46.6887   33.4971 H   0  0  0  0  0  0  0  0  0  0  0  0
    7.7967   45.0304   33.5559 H   0  0  0  0  0  0  0  0  0  0  0  0
   10.3948   47.5293   37.6640 H   0  0  0  0  0  0  0  0  0  0  0  0
    8.8679   46.6808   37.9786 H   0  0  0  0  0  0  0  0  0  0  0  0
   12.1707   45.9336   36.3065 H   0  0  0  0  0  0  0  0  0  0  0  0
   10.9209   42.7298   39.8761 H   0  0  0  0  0  0  0  0  0  0  0  0
   13.6529   44.0494   36.8560 H   0  0  0  0  0  0  0  0  0  0  0  0
   13.0348   42.4543   38.6438 H   0  0  0  0  0  0  0  0  0  0  0  0
    9.8251   40.7181   31.7588 H   0  0  0  0  0  0  0  0  0  0  0  0
   11.3826   41.5506   31.4740 H   0  0  0  0  0  0  0  0  0  0  0  0
   11.7288   39.5292   30.3508 H   0  0  0  0  0  0  0  0  0  0  0  0
   10.1138   38.2718   32.6380 H   0  0  0  0  0  0  0  0  0  0  0  0
   13.6726   37.4638   31.2241 H   0  0  0  0  0  0  0  0  0  0  0  0
   10.0537   38.1087   29.7639 H   0  0  0  0  0  0  0  0  0  0  0  0
   11.2646   36.3135   32.5107 H   0  0  0  0  0  0  0  0  0  0  0  0
   12.1550   35.5033   30.6316 H   0  0  0  0  0  0  0  0  0  0  0  0
   12.3363   38.3589   34.7451 H   0  0  0  0  0  0  0  0  0  0  0  0
   16.7573   34.1789   32.4619 H   0  0  0  0  0  0  0  0  0  0  0  0
   16.6366   34.5314   37.1415 H   0  0  0  0  0  0  0  0  0  0  0  0
   15.3533   35.7354   37.5139 H   0  0  0  0  0  0  0  0  0  0  0  0
  1  2  2  0
  1  3  1  0
  3  4  1  0
  4  5  1  0
  6  1  1  0
  7  6  1  0
  6  8  1  0
  8  9  1  0
  9 10  1  0
  9 11  2  0
 10 12  1  0
 12 13  1  0
 13 14  2  0
 15 13  1  0
 14 16  1  0
 14 17  1  0
 18 15  2  0
 16 19  1  0
 16 20  2  0
 17 21  2  0
 21 18  1  0
  4 22  2  0
  4 23  1  0
 24 23  1  0
 24 25  1  0
 25 26  1  0
 25 27  1  0
 26 28  1  0
 27 29  1  0
 27 30  1  0
 30 28  1  0
 28 31  1  0
 30 32  1  0
 33 31  1  0
 34 31  1  0
 35 33  2  0
 33 36  1  0
 37 34  2  0
 38 35  1  0
 36 39  2  0
 36 37  1  0
 40 38  2  0
 40 39  1  0
 39 41  1  0
  6 42  1  6
  7 43  1  0
  7 44  1  0
  8 45  1  0
  8 46  1  0
 12 47  1  0
 12 48  1  0
 15 49  1  0
 17 50  1  0
 18 51  1  0
 21 52  1  0
 24 53  1  0
 24 54  1  0
 25 55  1  0
 27 56  1  0
 28 57  1  0
 29 58  1  0
 30 59  1  0
 32 60  1  0
 34 61  1  0
 38 62  1  0
 41 63  1  0
 41 64  1  0
M  CHG  3   5  -1  16   1  19  -1
M  END
>  <EmbedRMS>  (681) 
0.08766936484023022

$$$$

     RDKit          3D

 64 67  0  0  0  0  0  0  0  0999 V2000
   10.2827   43.7754   33.8082 C   0  0  0  0  0  0  0  0  0  0  0  0
   11.4083   43.5908   34.3583 O   0  0  0  0  0  0  0  0  0  0  0  0
    9.3664   42.7320   33.7019 O   0  0  0  0  0  0  0  0  0  0  0  0
    9.8858   41.2347   34.2844 P   0  0  0  0  0  5  0  0  0  0  0  0
   10.3667   41.4696   35.8748 O   0  0  0  0  0  1  0  0  0  0  0  0
    9.9562   45.1109   33.2389 C   0  0  2  0  0  0  0  0  0  0  0  0
   11.0713   46.0280   33.4868 N   0  0  0  0  0  0  0  0  0  0  0  0
    8.6346   45.6452   33.8328 C   0  0  0  0  0  0  0  0  0  0  0  0
    8.1908   46.9132   33.1476 C   0  0  0  0  0  0  0  0  0  0  0  0
    8.2583   48.1782   33.7508 O   0  0  0  0  0  0  0  0  0  0  0  0
    7.7626   46.8381   31.9656 O   0  0  0  0  0  0  0  0  0  0  0  0
    8.6320   48.4315   35.1061 C   0  0  0  0  0  0  0  0  0  0  0  0
    7.5659   47.9633   36.0747 C   0  0  0  0  0  0  0  0  0  0  0  0
    7.8843   47.4743   37.3695 C   0  0  0  0  0  0  0  0  0  0  0  0
    6.2125   48.1509   35.7321 C   0  0  0  0  0  0  0  0  0  0  0  0
    9.2405   47.2919   37.7997 N   0  0  0  0  0  4  0  0  0  0  0  0
    6.8478   47.1744   38.2687 C   0  0  0  0  0  0  0  0  0  0  0  0
    5.1960   47.8282   36.6323 C   0  0  0  0  0  0  0  0  0  0  0  0
    9.6120   47.7052   39.0582 O   0  0  0  0  0  1  0  0  0  0  0  0
    9.9939   46.5185   37.1746 O   0  0  0  0  0  0  0  0  0  0  0  0
    5.5131   47.3412   37.8985 C   0  0  0  0  0  0  0  0  0  0  0  0
    8.8084   40.1916   34.2087 O   0  0  0  0  0  0  0  0  0  0  0  0
   11.2374   40.7908   33.3681 O   0  0  0  0  0  0  0  0  0  0  0  0
   10.9157   40.6891   31.9951 C   0  0  0  0  0  0  0  0  0  0  0  0
   11.5249   39.3873   31.4366 C   0  0  0  0  0  0  0  0  0  0  0  0
   12.7484   39.0880   32.0804 O   0  0  0  0  0  0  0  0  0  0  0  0
   10.6099   38.1909   31.6471 C   0  0  0  0  0  0  0  0  0  0  0  0
   12.9347   37.6809   32.0292 C   0  0  0  0  0  0  0  0  0  0  0  0
    9.6125   38.0874   30.6547 O   0  0  0  0  0  0  0  0  0  0  0  0
   11.5766   37.0134   31.7025 C   0  0  0  0  0  0  0  0  0  0  0  0
   13.4902   37.2165   33.3235 N   0  0  0  0  0  0  0  0  0  0  0  0
   11.6320   36.3231   30.4741 O   0  0  0  0  0  0  0  0  0  0  0  0
   14.4764   36.3267   33.5727 C   0  0  0  0  0  0  0  0  0  0  0  0
   13.1179   37.6306   34.5688 C   0  0  0  0  0  0  0  0  0  0  0  0
   15.2067   35.6136   32.6738 N   0  0  0  0  0  0  0  0  0  0  0  0
   14.6738   36.2273   34.9182 C   0  0  0  0  0  0  0  0  0  0  0  0
   13.8229   37.0453   35.5783 N   0  0  0  0  0  0  0  0  0  0  0  0
   16.1640   34.7592   33.1547 C   0  0  0  0  0  0  0  0  0  0  0  0
   15.6520   35.3491   35.4130 C   0  0  0  0  0  0  0  0  0  0  0  0
   16.3795   34.6308   34.5041 N   0  0  0  0  0  0  0  0  0  0  0  0
   15.9006   35.1931   36.8089 N   0  0  0  0  0  0  0  0  0  0  0  0
    9.8372   44.9804   32.1404 H   0  0  0  0  0  0  0  0  0  0  0  0
   11.1126   46.2671   34.5044 H   0  0  0  0  0  0  0  0  0  0  0  0
   10.9078   46.9160   32.9595 H   0  0  0  0  0  0  0  0  0  0  0  0
    7.8326   44.8892   33.6864 H   0  0  0  0  0  0  0  0  0  0  0  0
    8.7387   45.7821   34.9261 H   0  0  0  0  0  0  0  0  0  0  0  0
    9.6244   47.9858   35.2988 H   0  0  0  0  0  0  0  0  0  0  0  0
    8.7471   49.5279   35.2336 H   0  0  0  0  0  0  0  0  0  0  0  0
    5.9397   48.5599   34.7673 H   0  0  0  0  0  0  0  0  0  0  0  0
    7.0772   46.7987   39.2580 H   0  0  0  0  0  0  0  0  0  0  0  0
    4.1601   47.9699   36.3516 H   0  0  0  0  0  0  0  0  0  0  0  0
    4.7232   47.0991   38.5979 H   0  0  0  0  0  0  0  0  0  0  0  0
    9.8256   40.7205   31.7581 H   0  0  0  0  0  0  0  0  0  0  0  0
   11.3842   41.5506   31.4730 H   0  0  0  0  0  0  0  0  0  0  0  0
   11.7270   39.5288   30.3504 H   0  0  0  0  0  0  0  0  0  0  0  0
   10.1121   38.2731   32.6390 H   0  0  0  0  0  0  0  0  0  0  0  0
   13.6684   37.4596   31.2222 H   0  0  0  0  0  0  0  0  0  0  0  0
   10.0513   38.1110   29.7648 H   0  0  0  0  0  0  0  0  0  0  0  0
   11.2801   36.3129   32.5194 H   0  0  0  0  0  0  0  0  0  0  0  0
   10.8623   35.6961   30.4646 H   0  0  0  0  0  0  0  0  0  0  0  0
   12.3354   38.3579   34.7444 H   0  0  0  0  0  0  0  0  0  0  0  0
   16.7575   34.1786   32.4620 H   0  0  0  0  0  0  0  0  0  0  0  0
   15.3534   35.7352   37.5139 H   0  0  0  0  0  0  0  0  0  0  0  0
   16.6366   34.5312   37.1412 H   0  0  0  0  0  0  0  0  0  0  0  0
  1  2  2  0
  1  3  1  0
  3  4  1  0
  4  5  1  0
  6  1  1  0
  7  6  1  0
  6  8  1  0
  8  9  1  0
  9 10  1  0
  9 11  2  0
 10 12  1  0
 12 13  1  0
 13 14  2  0
 15 13  1  0
 14 16  1  0
 14 17  1  0
 18 15  2  0
 16 19  1  0
 16 20  2  0
 17 21  2  0
 21 18  1  0
  4 22  2  0
  4 23  1  0
 24 23  1  0
 24 25  1  0
 25 26  1  0
 25 27  1  0
 26 28  1  0
 27 29  1  0
 27 30  1  0
 30 28  1  0
 28 31  1  0
 30 32  1  0
 33 31  1  0
 34 31  1  0
 35 33  2  0
 33 36  1  0
 37 34  2  0
 38 35  1  0
 36 39  2  0
 36 37  1  0
 40 38  2  0
 40 39  1  0
 39 41  1  0
  6 42  1  6
  7 43  1  0
  7 44  1  0
  8 45  1  0
  8 46  1  0
 12 47  1  0
 12 48  1  0
 15 49  1  0
 17 50  1  0
 18 51  1  0
 21 52  1  0
 24 53  1  0
 24 54  1  0
 25 55  1  0
 27 56  1  0
 28 57  1  0
 29 58  1  0
 30 59  1  0
 32 60  1  0
 34 61  1  0
 38 62  1  0
 41 63  1  0
 41 64  1  0
M  CHG  3   5  -1  16   1  19  -1
M  END
>  <EmbedRMS>  (682) 
0.08781444990715485

$$$$

     RDKit          3D

 64 67  0  0  0  0  0  0  0  0999 V2000
   10.2873   43.7710   33.8021 C   0  0  0  0  0  0  0  0  0  0  0  0
   11.4095   43.5877   34.3593 O   0  0  0  0  0  0  0  0  0  0  0  0
    9.3682   42.7303   33.6977 O   0  0  0  0  0  0  0  0  0  0  0  0
    9.8856   41.2340   34.2838 P   0  0  0  0  0  5  0  0  0  0  0  0
   10.3649   41.4710   35.8745 O   0  0  0  0  0  1  0  0  0  0  0  0
    9.9519   45.1155   33.2557 C   0  0  2  0  0  0  0  0  0  0  0  0
   11.0706   46.0334   33.4778 N   0  0  0  0  0  0  0  0  0  0  0  0
    8.6625   45.6646   33.8997 C   0  0  0  0  0  0  0  0  0  0  0  0
    8.7962   45.8349   35.3839 C   0  0  0  0  0  0  0  0  0  0  0  0
    8.5571   44.7413   36.2241 O   0  0  0  0  0  0  0  0  0  0  0  0
    9.1587   46.9460   35.8584 O   0  0  0  0  0  0  0  0  0  0  0  0
    8.6899   44.8023   37.6437 C   0  0  0  0  0  0  0  0  0  0  0  0
    7.5868   45.6277   38.2717 C   0  0  0  0  0  0  0  0  0  0  0  0
    7.8040   46.3911   39.4486 C   0  0  0  0  0  0  0  0  0  0  0  0
    6.3047   45.6204   37.6886 C   0  0  0  0  0  0  0  0  0  0  0  0
    9.0559   46.3489   40.1542 N   0  0  0  0  0  4  0  0  0  0  0  0
    6.7624   47.1921   39.9505 C   0  0  0  0  0  0  0  0  0  0  0  0
    5.2786   46.4073   38.2132 C   0  0  0  0  0  0  0  0  0  0  0  0
    9.6846   45.1456   40.3777 O   0  0  0  0  0  1  0  0  0  0  0  0
    9.4778   47.3664   40.7418 O   0  0  0  0  0  0  0  0  0  0  0  0
    5.5105   47.2012   39.3345 C   0  0  0  0  0  0  0  0  0  0  0  0
    8.8080   40.1913   34.2081 O   0  0  0  0  0  0  0  0  0  0  0  0
   11.2382   40.7894   33.3689 O   0  0  0  0  0  0  0  0  0  0  0  0
   10.9190   40.6887   31.9951 C   0  0  0  0  0  0  0  0  0  0  0  0
   11.5181   39.3800   31.4398 C   0  0  0  0  0  0  0  0  0  0  0  0
   12.7485   39.0875   32.0749 O   0  0  0  0  0  0  0  0  0  0  0  0
   10.6054   38.1875   31.6657 C   0  0  0  0  0  0  0  0  0  0  0  0
   12.9361   37.6815   32.0288 C   0  0  0  0  0  0  0  0  0  0  0  0
    9.6423   38.0738   30.6446 O   0  0  0  0  0  0  0  0  0  0  0  0
   11.5765   37.0158   31.7046 C   0  0  0  0  0  0  0  0  0  0  0  0
   13.4908   37.2182   33.3237 N   0  0  0  0  0  0  0  0  0  0  0  0
   11.6102   36.3399   30.4680 O   0  0  0  0  0  0  0  0  0  0  0  0
   14.4762   36.3273   33.5728 C   0  0  0  0  0  0  0  0  0  0  0  0
   13.1181   37.6318   34.5689 C   0  0  0  0  0  0  0  0  0  0  0  0
   15.2063   35.6141   32.6739 N   0  0  0  0  0  0  0  0  0  0  0  0
   14.6733   36.2275   34.9182 C   0  0  0  0  0  0  0  0  0  0  0  0
   13.8226   37.0457   35.5783 N   0  0  0  0  0  0  0  0  0  0  0  0
   16.1636   34.7595   33.1546 C   0  0  0  0  0  0  0  0  0  0  0  0
   15.6515   35.3492   35.4130 C   0  0  0  0  0  0  0  0  0  0  0  0
   16.3791   34.6310   34.5041 N   0  0  0  0  0  0  0  0  0  0  0  0
   15.9002   35.1933   36.8089 N   0  0  0  0  0  0  0  0  0  0  0  0
    9.7774   45.0097   32.1613 H   0  0  0  0  0  0  0  0  0  0  0  0
   10.8083   46.9725   33.0986 H   0  0  0  0  0  0  0  0  0  0  0  0
   11.8804   45.7138   32.8966 H   0  0  0  0  0  0  0  0  0  0  0  0
    7.8157   44.9756   33.6897 H   0  0  0  0  0  0  0  0  0  0  0  0
    8.4042   46.6421   33.4372 H   0  0  0  0  0  0  0  0  0  0  0  0
    8.6351   43.7709   38.0498 H   0  0  0  0  0  0  0  0  0  0  0  0
    9.6925   45.2164   37.8815 H   0  0  0  0  0  0  0  0  0  0  0  0
    6.0992   45.0148   36.8147 H   0  0  0  0  0  0  0  0  0  0  0  0
    6.9126   47.7906   40.8403 H   0  0  0  0  0  0  0  0  0  0  0  0
    4.3019   46.4037   37.7465 H   0  0  0  0  0  0  0  0  0  0  0  0
    4.7137   47.8129   39.7376 H   0  0  0  0  0  0  0  0  0  0  0  0
    9.8311   40.7375   31.7552 H   0  0  0  0  0  0  0  0  0  0  0  0
   11.3997   41.5435   31.4732 H   0  0  0  0  0  0  0  0  0  0  0  0
   11.7002   39.5047   30.3474 H   0  0  0  0  0  0  0  0  0  0  0  0
   10.1104   38.2619   32.6637 H   0  0  0  0  0  0  0  0  0  0  0  0
   13.6696   37.4585   31.2222 H   0  0  0  0  0  0  0  0  0  0  0  0
    8.9001   38.6883   30.8814 H   0  0  0  0  0  0  0  0  0  0  0  0
   11.2690   36.3069   32.5091 H   0  0  0  0  0  0  0  0  0  0  0  0
   12.1426   35.5151   30.6153 H   0  0  0  0  0  0  0  0  0  0  0  0
   12.3359   38.3593   34.7445 H   0  0  0  0  0  0  0  0  0  0  0  0
   16.7569   34.1789   32.4618 H   0  0  0  0  0  0  0  0  0  0  0  0
   16.6362   34.5315   37.1414 H   0  0  0  0  0  0  0  0  0  0  0  0
   15.3530   35.7357   37.5138 H   0  0  0  0  0  0  0  0  0  0  0  0
  1  2  2  0
  1  3  1  0
  3  4  1  0
  4  5  1  0
  6  1  1  0
  7  6  1  0
  6  8  1  0
  8  9  1  0
  9 10  1  0
  9 11  2  0
 10 12  1  0
 12 13  1  0
 13 14  2  0
 15 13  1  0
 14 16  1  0
 14 17  1  0
 18 15  2  0
 16 19  1  0
 16 20  2  0
 17 21  2  0
 21 18  1  0
  4 22  2  0
  4 23  1  0
 24 23  1  0
 24 25  1  0
 25 26  1  0
 25 27  1  0
 26 28  1  0
 27 29  1  0
 27 30  1  0
 30 28  1  0
 28 31  1  0
 30 32  1  0
 33 31  1  0
 34 31  1  0
 35 33  2  0
 33 36  1  0
 37 34  2  0
 38 35  1  0
 36 39  2  0
 36 37  1  0
 40 38  2  0
 40 39  1  0
 39 41  1  0
  6 42  1  6
  7 43  1  0
  7 44  1  0
  8 45  1  0
  8 46  1  0
 12 47  1  0
 12 48  1  0
 15 49  1  0
 17 50  1  0
 18 51  1  0
 21 52  1  0
 24 53  1  0
 24 54  1  0
 25 55  1  0
 27 56  1  0
 28 57  1  0
 29 58  1  0
 30 59  1  0
 32 60  1  0
 34 61  1  0
 38 62  1  0
 41 63  1  0
 41 64  1  0
M  CHG  3   5  -1  16   1  19  -1
M  END
>  <EmbedRMS>  (683) 
0.08934498529931337

$$$$

     RDKit          3D

 64 67  0  0  0  0  0  0  0  0999 V2000
   10.2845   43.7742   33.8068 C   0  0  0  0  0  0  0  0  0  0  0  0
   11.4069   43.5902   34.3636 O   0  0  0  0  0  0  0  0  0  0  0  0
    9.3681   42.7310   33.6988 O   0  0  0  0  0  0  0  0  0  0  0  0
    9.8860   41.2342   34.2839 P   0  0  0  0  0  5  0  0  0  0  0  0
   10.3656   41.4698   35.8746 O   0  0  0  0  0  1  0  0  0  0  0  0
    9.9493   45.1164   33.2549 C   0  0  2  0  0  0  0  0  0  0  0  0
   11.0752   46.0281   33.4734 N   0  0  0  0  0  0  0  0  0  0  0  0
    8.6780   45.6529   33.9428 C   0  0  0  0  0  0  0  0  0  0  0  0
    8.1860   46.9122   33.2985 C   0  0  0  0  0  0  0  0  0  0  0  0
    8.3561   48.1350   33.9573 O   0  0  0  0  0  0  0  0  0  0  0  0
    7.6408   46.8609   32.1628 O   0  0  0  0  0  0  0  0  0  0  0  0
    7.9611   49.3897   33.4038 C   0  0  0  0  0  0  0  0  0  0  0  0
    8.8622   49.7765   32.2532 C   0  0  0  0  0  0  0  0  0  0  0  0
    8.3626   50.1942   30.9919 C   0  0  0  0  0  0  0  0  0  0  0  0
   10.2491   49.8147   32.4860 C   0  0  0  0  0  0  0  0  0  0  0  0
    6.9590   50.1857   30.6929 N   0  0  0  0  0  4  0  0  0  0  0  0
    9.2633   50.6350   30.0066 C   0  0  0  0  0  0  0  0  0  0  0  0
   11.1291   50.2381   31.4892 C   0  0  0  0  0  0  0  0  0  0  0  0
    6.2371   49.0215   30.8147 O   0  0  0  0  0  1  0  0  0  0  0  0
    6.4488   51.1491   30.0847 O   0  0  0  0  0  0  0  0  0  0  0  0
   10.6369   50.6497   30.2522 C   0  0  0  0  0  0  0  0  0  0  0  0
    8.8086   40.1912   34.2076 O   0  0  0  0  0  0  0  0  0  0  0  0
   11.2386   40.7905   33.3693 O   0  0  0  0  0  0  0  0  0  0  0  0
   10.9192   40.6905   31.9958 C   0  0  0  0  0  0  0  0  0  0  0  0
   11.5176   39.3823   31.4410 C   0  0  0  0  0  0  0  0  0  0  0  0
   12.7496   39.0891   32.0754 O   0  0  0  0  0  0  0  0  0  0  0  0
   10.6037   38.1899   31.6659 C   0  0  0  0  0  0  0  0  0  0  0  0
   12.9401   37.6832   32.0276 C   0  0  0  0  0  0  0  0  0  0  0  0
    9.6376   38.0785   30.6474 O   0  0  0  0  0  0  0  0  0  0  0  0
   11.5803   37.0203   31.6937 C   0  0  0  0  0  0  0  0  0  0  0  0
   13.4902   37.2177   33.3237 N   0  0  0  0  0  0  0  0  0  0  0  0
   11.6117   36.3192   30.4680 O   0  0  0  0  0  0  0  0  0  0  0  0
   14.4759   36.3271   33.5731 C   0  0  0  0  0  0  0  0  0  0  0  0
   13.1176   37.6317   34.5688 C   0  0  0  0  0  0  0  0  0  0  0  0
   15.2064   35.6141   32.6742 N   0  0  0  0  0  0  0  0  0  0  0  0
   14.6729   36.2274   34.9184 C   0  0  0  0  0  0  0  0  0  0  0  0
   13.8221   37.0457   35.5783 N   0  0  0  0  0  0  0  0  0  0  0  0
   16.1637   34.7596   33.1549 C   0  0  0  0  0  0  0  0  0  0  0  0
   15.6514   35.3493   35.4133 C   0  0  0  0  0  0  0  0  0  0  0  0
   16.3791   34.6312   34.5044 N   0  0  0  0  0  0  0  0  0  0  0  0
   15.9001   35.1935   36.8091 N   0  0  0  0  0  0  0  0  0  0  0  0
    9.7639   45.0049   32.1623 H   0  0  0  0  0  0  0  0  0  0  0  0
   11.8960   45.6762   32.9274 H   0  0  0  0  0  0  0  0  0  0  0  0
   10.8455   46.9529   33.0447 H   0  0  0  0  0  0  0  0  0  0  0  0
    8.8834   45.8428   35.0193 H   0  0  0  0  0  0  0  0  0  0  0  0
    7.8638   44.8977   33.8829 H   0  0  0  0  0  0  0  0  0  0  0  0
    8.0584   50.1644   34.1932 H   0  0  0  0  0  0  0  0  0  0  0  0
    6.8886   49.3544   33.1320 H   0  0  0  0  0  0  0  0  0  0  0  0
   10.6500   49.5242   33.4495 H   0  0  0  0  0  0  0  0  0  0  0  0
    8.8982   50.9553   29.0388 H   0  0  0  0  0  0  0  0  0  0  0  0
   12.1942   50.2576   31.6808 H   0  0  0  0  0  0  0  0  0  0  0  0
   11.3206   50.9837   29.4824 H   0  0  0  0  0  0  0  0  0  0  0  0
    9.8313   40.7398   31.7557 H   0  0  0  0  0  0  0  0  0  0  0  0
   11.4002   41.5453   31.4742 H   0  0  0  0  0  0  0  0  0  0  0  0
   11.6991   39.5089   30.3487 H   0  0  0  0  0  0  0  0  0  0  0  0
   10.1131   38.2590   32.6664 H   0  0  0  0  0  0  0  0  0  0  0  0
   13.6800   37.4625   31.2265 H   0  0  0  0  0  0  0  0  0  0  0  0
    8.8953   38.6909   30.8891 H   0  0  0  0  0  0  0  0  0  0  0  0
   11.2830   36.3060   32.4929 H   0  0  0  0  0  0  0  0  0  0  0  0
   11.8859   36.9588   29.7593 H   0  0  0  0  0  0  0  0  0  0  0  0
   12.3360   38.3600   34.7441 H   0  0  0  0  0  0  0  0  0  0  0  0
   16.7573   34.1792   32.4621 H   0  0  0  0  0  0  0  0  0  0  0  0
   16.6362   34.5318   37.1416 H   0  0  0  0  0  0  0  0  0  0  0  0
   15.3528   35.7357   37.5140 H   0  0  0  0  0  0  0  0  0  0  0  0
  1  2  2  0
  1  3  1  0
  3  4  1  0
  4  5  1  0
  6  1  1  0
  7  6  1  0
  6  8  1  0
  8  9  1  0
  9 10  1  0
  9 11  2  0
 10 12  1  0
 12 13  1  0
 13 14  2  0
 15 13  1  0
 14 16  1  0
 14 17  1  0
 18 15  2  0
 16 19  1  0
 16 20  2  0
 17 21  2  0
 21 18  1  0
  4 22  2  0
  4 23  1  0
 24 23  1  0
 24 25  1  0
 25 26  1  0
 25 27  1  0
 26 28  1  0
 27 29  1  0
 27 30  1  0
 30 28  1  0
 28 31  1  0
 30 32  1  0
 33 31  1  0
 34 31  1  0
 35 33  2  0
 33 36  1  0
 37 34  2  0
 38 35  1  0
 36 39  2  0
 36 37  1  0
 40 38  2  0
 40 39  1  0
 39 41  1  0
  6 42  1  6
  7 43  1  0
  7 44  1  0
  8 45  1  0
  8 46  1  0
 12 47  1  0
 12 48  1  0
 15 49  1  0
 17 50  1  0
 18 51  1  0
 21 52  1  0
 24 53  1  0
 24 54  1  0
 25 55  1  0
 27 56  1  0
 28 57  1  0
 29 58  1  0
 30 59  1  0
 32 60  1  0
 34 61  1  0
 38 62  1  0
 41 63  1  0
 41 64  1  0
M  CHG  3   5  -1  16   1  19  -1
M  END
>  <EmbedRMS>  (684) 
0.08839363384652434

$$$$

     RDKit          3D

 64 67  0  0  0  0  0  0  0  0999 V2000
   10.2862   43.7710   33.8098 C   0  0  0  0  0  0  0  0  0  0  0  0
   11.4100   43.5817   34.3615 O   0  0  0  0  0  0  0  0  0  0  0  0
    9.3668   42.7309   33.7017 O   0  0  0  0  0  0  0  0  0  0  0  0
    9.8848   41.2328   34.2832 P   0  0  0  0  0  5  0  0  0  0  0  0
   10.3663   41.4673   35.8737 O   0  0  0  0  0  1  0  0  0  0  0  0
    9.9606   45.1126   33.2474 C   0  0  2  0  0  0  0  0  0  0  0  0
   11.0655   46.0480   33.4748 N   0  0  0  0  0  0  0  0  0  0  0  0
    8.6651   45.6568   33.8722 C   0  0  0  0  0  0  0  0  0  0  0  0
    8.2778   46.9654   33.2568 C   0  0  0  0  0  0  0  0  0  0  0  0
    8.7053   48.1588   33.8520 O   0  0  0  0  0  0  0  0  0  0  0  0
    7.5966   46.9806   32.1953 O   0  0  0  0  0  0  0  0  0  0  0  0
    8.4107   49.4523   33.3223 C   0  0  0  0  0  0  0  0  0  0  0  0
    7.0913   50.0143   33.8211 C   0  0  0  0  0  0  0  0  0  0  0  0
    6.7533   51.3795   33.5977 C   0  0  0  0  0  0  0  0  0  0  0  0
    6.1900   49.2022   34.5431 C   0  0  0  0  0  0  0  0  0  0  0  0
    7.6167   52.2722   32.8685 N   0  0  0  0  0  4  0  0  0  0  0  0
    5.5509   51.8862   34.1218 C   0  0  0  0  0  0  0  0  0  0  0  0
    4.9953   49.7248   35.0393 C   0  0  0  0  0  0  0  0  0  0  0  0
    7.6270   53.6148   33.1702 O   0  0  0  0  0  1  0  0  0  0  0  0
    8.2309   51.8826   31.8546 O   0  0  0  0  0  0  0  0  0  0  0  0
    4.6780   51.0639   34.8323 C   0  0  0  0  0  0  0  0  0  0  0  0
    8.8069   40.1904   34.2077 O   0  0  0  0  0  0  0  0  0  0  0  0
   11.2364   40.7901   33.3658 O   0  0  0  0  0  0  0  0  0  0  0  0
   10.9133   40.6842   31.9930 C   0  0  0  0  0  0  0  0  0  0  0  0
   11.5174   39.3773   31.4394 C   0  0  0  0  0  0  0  0  0  0  0  0
   12.7476   39.0869   32.0756 O   0  0  0  0  0  0  0  0  0  0  0  0
   10.6069   38.1851   31.6656 C   0  0  0  0  0  0  0  0  0  0  0  0
   12.9372   37.6811   32.0290 C   0  0  0  0  0  0  0  0  0  0  0  0
    9.6404   38.0882   30.6475 O   0  0  0  0  0  0  0  0  0  0  0  0
   11.5789   37.0134   31.7045 C   0  0  0  0  0  0  0  0  0  0  0  0
   13.4915   37.2182   33.3239 N   0  0  0  0  0  0  0  0  0  0  0  0
   11.6125   36.3388   30.4673 O   0  0  0  0  0  0  0  0  0  0  0  0
   14.4766   36.3272   33.5730 C   0  0  0  0  0  0  0  0  0  0  0  0
   13.1184   37.6317   34.5690 C   0  0  0  0  0  0  0  0  0  0  0  0
   15.2066   35.6139   32.6740 N   0  0  0  0  0  0  0  0  0  0  0  0
   14.6735   36.2274   34.9184 C   0  0  0  0  0  0  0  0  0  0  0  0
   13.8227   37.0455   35.5785 N   0  0  0  0  0  0  0  0  0  0  0  0
   16.1638   34.7593   33.1548 C   0  0  0  0  0  0  0  0  0  0  0  0
   15.6517   35.3491   35.4132 C   0  0  0  0  0  0  0  0  0  0  0  0
   16.3792   34.6308   34.5043 N   0  0  0  0  0  0  0  0  0  0  0  0
   15.9004   35.1932   36.8090 N   0  0  0  0  0  0  0  0  0  0  0  0
    9.8092   44.9957   32.1513 H   0  0  0  0  0  0  0  0  0  0  0  0
   11.2751   46.1189   34.4981 H   0  0  0  0  0  0  0  0  0  0  0  0
   11.9220   45.7019   32.9829 H   0  0  0  0  0  0  0  0  0  0  0  0
    7.8355   44.9320   33.7187 H   0  0  0  0  0  0  0  0  0  0  0  0
    8.7973   45.7922   34.9680 H   0  0  0  0  0  0  0  0  0  0  0  0
    9.2259   50.1353   33.6416 H   0  0  0  0  0  0  0  0  0  0  0  0
    8.4142   49.4133   32.2119 H   0  0  0  0  0  0  0  0  0  0  0  0
    6.4034   48.1625   34.7442 H   0  0  0  0  0  0  0  0  0  0  0  0
    5.2791   52.9225   33.9654 H   0  0  0  0  0  0  0  0  0  0  0  0
    4.3163   49.0893   35.5933 H   0  0  0  0  0  0  0  0  0  0  0  0
    3.7521   51.4666   35.2226 H   0  0  0  0  0  0  0  0  0  0  0  0
    9.8231   40.7187   31.7568 H   0  0  0  0  0  0  0  0  0  0  0  0
   11.3848   41.5414   31.4666 H   0  0  0  0  0  0  0  0  0  0  0  0
   11.7006   39.5017   30.3470 H   0  0  0  0  0  0  0  0  0  0  0  0
   10.1097   38.2750   32.6605 H   0  0  0  0  0  0  0  0  0  0  0  0
   13.6713   37.4592   31.2227 H   0  0  0  0  0  0  0  0  0  0  0  0
    9.0033   37.3834   30.9350 H   0  0  0  0  0  0  0  0  0  0  0  0
   11.2706   36.3048   32.5088 H   0  0  0  0  0  0  0  0  0  0  0  0
   12.1444   35.5136   30.6141 H   0  0  0  0  0  0  0  0  0  0  0  0
   12.3362   38.3592   34.7445 H   0  0  0  0  0  0  0  0  0  0  0  0
   16.7571   34.1787   32.4620 H   0  0  0  0  0  0  0  0  0  0  0  0
   15.3532   35.7355   37.5139 H   0  0  0  0  0  0  0  0  0  0  0  0
   16.6363   34.5314   37.1415 H   0  0  0  0  0  0  0  0  0  0  0  0
  1  2  2  0
  1  3  1  0
  3  4  1  0
  4  5  1  0
  6  1  1  0
  7  6  1  0
  6  8  1  0
  8  9  1  0
  9 10  1  0
  9 11  2  0
 10 12  1  0
 12 13  1  0
 13 14  2  0
 15 13  1  0
 14 16  1  0
 14 17  1  0
 18 15  2  0
 16 19  1  0
 16 20  2  0
 17 21  2  0
 21 18  1  0
  4 22  2  0
  4 23  1  0
 24 23  1  0
 24 25  1  0
 25 26  1  0
 25 27  1  0
 26 28  1  0
 27 29  1  0
 27 30  1  0
 30 28  1  0
 28 31  1  0
 30 32  1  0
 33 31  1  0
 34 31  1  0
 35 33  2  0
 33 36  1  0
 37 34  2  0
 38 35  1  0
 36 39  2  0
 36 37  1  0
 40 38  2  0
 40 39  1  0
 39 41  1  0
  6 42  1  6
  7 43  1  0
  7 44  1  0
  8 45  1  0
  8 46  1  0
 12 47  1  0
 12 48  1  0
 15 49  1  0
 17 50  1  0
 18 51  1  0
 21 52  1  0
 24 53  1  0
 24 54  1  0
 25 55  1  0
 27 56  1  0
 28 57  1  0
 29 58  1  0
 30 59  1  0
 32 60  1  0
 34 61  1  0
 38 62  1  0
 41 63  1  0
 41 64  1  0
M  CHG  3   5  -1  16   1  19  -1
M  END
>  <EmbedRMS>  (685) 
0.08934432314740337

$$$$

     RDKit          3D

 64 67  0  0  0  0  0  0  0  0999 V2000
   10.2863   43.7710   33.8099 C   0  0  0  0  0  0  0  0  0  0  0  0
   11.4101   43.5817   34.3615 O   0  0  0  0  0  0  0  0  0  0  0  0
    9.3669   42.7309   33.7017 O   0  0  0  0  0  0  0  0  0  0  0  0
    9.8850   41.2328   34.2832 P   0  0  0  0  0  5  0  0  0  0  0  0
   10.3663   41.4672   35.8737 O   0  0  0  0  0  1  0  0  0  0  0  0
    9.9608   45.1126   33.2475 C   0  0  2  0  0  0  0  0  0  0  0  0
   11.0655   46.0482   33.4749 N   0  0  0  0  0  0  0  0  0  0  0  0
    8.6655   45.6574   33.8722 C   0  0  0  0  0  0  0  0  0  0  0  0
    8.2744   46.9608   33.2481 C   0  0  0  0  0  0  0  0  0  0  0  0
    7.6812   46.9641   31.9830 O   0  0  0  0  0  0  0  0  0  0  0  0
    8.5116   48.0429   33.8513 O   0  0  0  0  0  0  0  0  0  0  0  0
    7.3026   48.1623   31.3145 C   0  0  0  0  0  0  0  0  0  0  0  0
    6.6922   47.8191   29.9810 C   0  0  0  0  0  0  0  0  0  0  0  0
    5.3193   47.4802   29.8389 C   0  0  0  0  0  0  0  0  0  0  0  0
    7.5192   47.8297   28.8434 C   0  0  0  0  0  0  0  0  0  0  0  0
    4.4312   47.3976   30.9686 N   0  0  0  0  0  4  0  0  0  0  0  0
    4.8090   47.2227   28.5539 C   0  0  0  0  0  0  0  0  0  0  0  0
    6.9956   47.5531   27.5800 C   0  0  0  0  0  0  0  0  0  0  0  0
    3.0912   47.6667   30.8089 O   0  0  0  0  0  1  0  0  0  0  0  0
    4.8198   46.9125   32.0508 O   0  0  0  0  0  0  0  0  0  0  0  0
    5.6417   47.2579   27.4346 C   0  0  0  0  0  0  0  0  0  0  0  0
    8.8070   40.1905   34.2076 O   0  0  0  0  0  0  0  0  0  0  0  0
   11.2367   40.7901   33.3659 O   0  0  0  0  0  0  0  0  0  0  0  0
   10.9140   40.6849   31.9930 C   0  0  0  0  0  0  0  0  0  0  0  0
   11.5165   39.3772   31.4392 C   0  0  0  0  0  0  0  0  0  0  0  0
   12.7471   39.0854   32.0739 O   0  0  0  0  0  0  0  0  0  0  0  0
   10.6047   38.1866   31.6669 C   0  0  0  0  0  0  0  0  0  0  0  0
   12.9345   37.6791   32.0282 C   0  0  0  0  0  0  0  0  0  0  0  0
    9.6378   38.0916   30.6488 O   0  0  0  0  0  0  0  0  0  0  0  0
   11.5761   37.0128   31.7056 C   0  0  0  0  0  0  0  0  0  0  0  0
   13.4909   37.2177   33.3234 N   0  0  0  0  0  0  0  0  0  0  0  0
   11.6234   36.3370   30.4684 O   0  0  0  0  0  0  0  0  0  0  0  0
   14.4765   36.3272   33.5727 C   0  0  0  0  0  0  0  0  0  0  0  0
   13.1182   37.6315   34.5686 C   0  0  0  0  0  0  0  0  0  0  0  0
   15.2067   35.6138   32.6739 N   0  0  0  0  0  0  0  0  0  0  0  0
   14.6736   36.2276   34.9182 C   0  0  0  0  0  0  0  0  0  0  0  0
   13.8227   37.0457   35.5781 N   0  0  0  0  0  0  0  0  0  0  0  0
   16.1639   34.7594   33.1548 C   0  0  0  0  0  0  0  0  0  0  0  0
   15.6517   35.3493   35.4131 C   0  0  0  0  0  0  0  0  0  0  0  0
   16.3792   34.6309   34.5043 N   0  0  0  0  0  0  0  0  0  0  0  0
   15.9002   35.1934   36.8090 N   0  0  0  0  0  0  0  0  0  0  0  0
    9.8099   44.9953   32.1513 H   0  0  0  0  0  0  0  0  0  0  0  0
   11.2756   46.1181   34.4982 H   0  0  0  0  0  0  0  0  0  0  0  0
   11.9216   45.7023   32.9823 H   0  0  0  0  0  0  0  0  0  0  0  0
    8.7951   45.7877   34.9697 H   0  0  0  0  0  0  0  0  0  0  0  0
    7.8358   44.9350   33.7121 H   0  0  0  0  0  0  0  0  0  0  0  0
    6.5831   48.7392   31.9343 H   0  0  0  0  0  0  0  0  0  0  0  0
    8.1992   48.8060   31.1759 H   0  0  0  0  0  0  0  0  0  0  0  0
    8.5730   48.0638   28.9326 H   0  0  0  0  0  0  0  0  0  0  0  0
    3.7647   46.9711   28.4197 H   0  0  0  0  0  0  0  0  0  0  0  0
    7.6409   47.5720   26.7112 H   0  0  0  0  0  0  0  0  0  0  0  0
    5.2374   47.0471   26.4529 H   0  0  0  0  0  0  0  0  0  0  0  0
   11.3869   41.5415   31.4670 H   0  0  0  0  0  0  0  0  0  0  0  0
    9.8240   40.7211   31.7564 H   0  0  0  0  0  0  0  0  0  0  0  0
   11.6986   39.5011   30.3466 H   0  0  0  0  0  0  0  0  0  0  0  0
   10.1095   38.2769   32.6628 H   0  0  0  0  0  0  0  0  0  0  0  0
   13.6672   37.4545   31.2212 H   0  0  0  0  0  0  0  0  0  0  0  0
    8.9779   37.4156   30.9534 H   0  0  0  0  0  0  0  0  0  0  0  0
   11.2861   36.3041   32.5176 H   0  0  0  0  0  0  0  0  0  0  0  0
   10.8690   35.6917   30.4657 H   0  0  0  0  0  0  0  0  0  0  0  0
   12.3355   38.3585   34.7441 H   0  0  0  0  0  0  0  0  0  0  0  0
   16.7573   34.1787   32.4621 H   0  0  0  0  0  0  0  0  0  0  0  0
   16.6361   34.5316   37.1415 H   0  0  0  0  0  0  0  0  0  0  0  0
   15.3530   35.7359   37.5138 H   0  0  0  0  0  0  0  0  0  0  0  0
  1  2  2  0
  1  3  1  0
  3  4  1  0
  4  5  1  0
  6  1  1  0
  7  6  1  0
  6  8  1  0
  8  9  1  0
  9 10  1  0
  9 11  2  0
 10 12  1  0
 12 13  1  0
 13 14  2  0
 15 13  1  0
 14 16  1  0
 14 17  1  0
 18 15  2  0
 16 19  1  0
 16 20  2  0
 17 21  2  0
 21 18  1  0
  4 22  2  0
  4 23  1  0
 24 23  1  0
 24 25  1  0
 25 26  1  0
 25 27  1  0
 26 28  1  0
 27 29  1  0
 27 30  1  0
 30 28  1  0
 28 31  1  0
 30 32  1  0
 33 31  1  0
 34 31  1  0
 35 33  2  0
 33 36  1  0
 37 34  2  0
 38 35  1  0
 36 39  2  0
 36 37  1  0
 40 38  2  0
 40 39  1  0
 39 41  1  0
  6 42  1  6
  7 43  1  0
  7 44  1  0
  8 45  1  0
  8 46  1  0
 12 47  1  0
 12 48  1  0
 15 49  1  0
 17 50  1  0
 18 51  1  0
 21 52  1  0
 24 53  1  0
 24 54  1  0
 25 55  1  0
 27 56  1  0
 28 57  1  0
 29 58  1  0
 30 59  1  0
 32 60  1  0
 34 61  1  0
 38 62  1  0
 41 63  1  0
 41 64  1  0
M  CHG  3   5  -1  16   1  19  -1
M  END
>  <EmbedRMS>  (686) 
0.08953285142415288

$$$$

     RDKit          3D

 64 67  0  0  0  0  0  0  0  0999 V2000
   10.2876   43.7681   33.8074 C   0  0  0  0  0  0  0  0  0  0  0  0
   11.4137   43.5766   34.3534 O   0  0  0  0  0  0  0  0  0  0  0  0
    9.3655   42.7307   33.7029 O   0  0  0  0  0  0  0  0  0  0  0  0
    9.8837   41.2331   34.2852 P   0  0  0  0  0  5  0  0  0  0  0  0
   10.3652   41.4691   35.8754 O   0  0  0  0  0  1  0  0  0  0  0  0
    9.9678   45.1094   33.2398 C   0  0  2  0  0  0  0  0  0  0  0  0
   11.0581   46.0564   33.4860 N   0  0  0  0  0  0  0  0  0  0  0  0
    8.6307   45.6645   33.7688 C   0  0  0  0  0  0  0  0  0  0  0  0
    8.5679   45.7347   35.2670 C   0  0  0  0  0  0  0  0  0  0  0  0
    9.1785   46.8028   35.9355 O   0  0  0  0  0  0  0  0  0  0  0  0
    7.9835   44.8207   35.9110 O   0  0  0  0  0  0  0  0  0  0  0  0
    9.1280   46.9873   37.3518 C   0  0  0  0  0  0  0  0  0  0  0  0
   10.3395   46.4053   38.0548 C   0  0  0  0  0  0  0  0  0  0  0  0
   10.8216   46.9654   39.2690 C   0  0  0  0  0  0  0  0  0  0  0  0
   10.9934   45.2756   37.5233 C   0  0  0  0  0  0  0  0  0  0  0  0
   10.1385   48.0486   39.9240 N   0  0  0  0  0  4  0  0  0  0  0  0
   11.9858   46.4388   39.8576 C   0  0  0  0  0  0  0  0  0  0  0  0
   12.1358   44.7565   38.1331 C   0  0  0  0  0  0  0  0  0  0  0  0
    8.7669   48.0399   40.0334 O   0  0  0  0  0  1  0  0  0  0  0  0
   10.7870   48.9019   40.5643 O   0  0  0  0  0  0  0  0  0  0  0  0
   12.6385   45.3445   39.2908 C   0  0  0  0  0  0  0  0  0  0  0  0
    8.8063   40.1903   34.2094 O   0  0  0  0  0  0  0  0  0  0  0  0
   11.2357   40.7896   33.3688 O   0  0  0  0  0  0  0  0  0  0  0  0
   10.9146   40.6882   31.9956 C   0  0  0  0  0  0  0  0  0  0  0  0
   11.5257   39.3873   31.4368 C   0  0  0  0  0  0  0  0  0  0  0  0
   12.7489   39.0895   32.0821 O   0  0  0  0  0  0  0  0  0  0  0  0
   10.6122   38.1893   31.6462 C   0  0  0  0  0  0  0  0  0  0  0  0
   12.9373   37.6829   32.0302 C   0  0  0  0  0  0  0  0  0  0  0  0
    9.6150   38.0838   30.6538 O   0  0  0  0  0  0  0  0  0  0  0  0
   11.5793   37.0137   31.7014 C   0  0  0  0  0  0  0  0  0  0  0  0
   13.4906   37.2170   33.3243 N   0  0  0  0  0  0  0  0  0  0  0  0
   11.6217   36.3253   30.4725 O   0  0  0  0  0  0  0  0  0  0  0  0
   14.4763   36.3267   33.5731 C   0  0  0  0  0  0  0  0  0  0  0  0
   13.1182   37.6309   34.5695 C   0  0  0  0  0  0  0  0  0  0  0  0
   15.2065   35.6137   32.6740 N   0  0  0  0  0  0  0  0  0  0  0  0
   14.6735   36.2270   34.9185 C   0  0  0  0  0  0  0  0  0  0  0  0
   13.8229   37.0451   35.5788 N   0  0  0  0  0  0  0  0  0  0  0  0
   16.1639   34.7593   33.1547 C   0  0  0  0  0  0  0  0  0  0  0  0
   15.6518   35.3489   35.4132 C   0  0  0  0  0  0  0  0  0  0  0  0
   16.3794   34.6308   34.5042 N   0  0  0  0  0  0  0  0  0  0  0  0
   15.9006   35.1931   36.8090 N   0  0  0  0  0  0  0  0  0  0  0  0
    9.8616   44.9868   32.1394 H   0  0  0  0  0  0  0  0  0  0  0  0
   11.2858   46.0980   34.5061 H   0  0  0  0  0  0  0  0  0  0  0  0
   11.9144   45.7349   32.9773 H   0  0  0  0  0  0  0  0  0  0  0  0
    8.4692   46.6834   33.3555 H   0  0  0  0  0  0  0  0  0  0  0  0
    7.7970   45.0289   33.3966 H   0  0  0  0  0  0  0  0  0  0  0  0
    8.1974   46.5532   37.7769 H   0  0  0  0  0  0  0  0  0  0  0  0
    9.0968   48.0831   37.5232 H   0  0  0  0  0  0  0  0  0  0  0  0
   10.6323   44.7899   36.6313 H   0  0  0  0  0  0  0  0  0  0  0  0
   12.3738   46.8611   40.7760 H   0  0  0  0  0  0  0  0  0  0  0  0
   12.6333   43.8959   37.7044 H   0  0  0  0  0  0  0  0  0  0  0  0
   13.5266   44.9412   39.7603 H   0  0  0  0  0  0  0  0  0  0  0  0
    9.8245   40.7179   31.7586 H   0  0  0  0  0  0  0  0  0  0  0  0
   11.3819   41.5506   31.4739 H   0  0  0  0  0  0  0  0  0  0  0  0
   11.7287   39.5292   30.3508 H   0  0  0  0  0  0  0  0  0  0  0  0
   10.1137   38.2716   32.6380 H   0  0  0  0  0  0  0  0  0  0  0  0
   13.6725   37.4640   31.2240 H   0  0  0  0  0  0  0  0  0  0  0  0
   10.0536   38.1086   29.7639 H   0  0  0  0  0  0  0  0  0  0  0  0
   11.2647   36.3135   32.5107 H   0  0  0  0  0  0  0  0  0  0  0  0
   12.1551   35.5034   30.6315 H   0  0  0  0  0  0  0  0  0  0  0  0
   12.3362   38.3587   34.7451 H   0  0  0  0  0  0  0  0  0  0  0  0
   16.7573   34.1789   32.4618 H   0  0  0  0  0  0  0  0  0  0  0  0
   15.3533   35.7353   37.5139 H   0  0  0  0  0  0  0  0  0  0  0  0
   16.6366   34.5314   37.1415 H   0  0  0  0  0  0  0  0  0  0  0  0
  1  2  2  0
  1  3  1  0
  3  4  1  0
  4  5  1  0
  6  1  1  0
  7  6  1  0
  6  8  1  0
  8  9  1  0
  9 10  1  0
  9 11  2  0
 10 12  1  0
 12 13  1  0
 13 14  2  0
 15 13  1  0
 14 16  1  0
 14 17  1  0
 18 15  2  0
 16 19  1  0
 16 20  2  0
 17 21  2  0
 21 18  1  0
  4 22  2  0
  4 23  1  0
 24 23  1  0
 24 25  1  0
 25 26  1  0
 25 27  1  0
 26 28  1  0
 27 29  1  0
 27 30  1  0
 30 28  1  0
 28 31  1  0
 30 32  1  0
 33 31  1  0
 34 31  1  0
 35 33  2  0
 33 36  1  0
 37 34  2  0
 38 35  1  0
 36 39  2  0
 36 37  1  0
 40 38  2  0
 40 39  1  0
 39 41  1  0
  6 42  1  6
  7 43  1  0
  7 44  1  0
  8 45  1  0
  8 46  1  0
 12 47  1  0
 12 48  1  0
 15 49  1  0
 17 50  1  0
 18 51  1  0
 21 52  1  0
 24 53  1  0
 24 54  1  0
 25 55  1  0
 27 56  1  0
 28 57  1  0
 29 58  1  0
 30 59  1  0
 32 60  1  0
 34 61  1  0
 38 62  1  0
 41 63  1  0
 41 64  1  0
M  CHG  3   5  -1  16   1  19  -1
M  END
>  <EmbedRMS>  (687) 
0.08841119897849838

$$$$

     RDKit          3D

 64 67  0  0  0  0  0  0  0  0999 V2000
   10.2816   43.7756   33.8097 C   0  0  0  0  0  0  0  0  0  0  0  0
   11.4045   43.5923   34.3657 O   0  0  0  0  0  0  0  0  0  0  0  0
    9.3716   42.7281   33.6944 O   0  0  0  0  0  0  0  0  0  0  0  0
    9.8872   41.2329   34.2831 P   0  0  0  0  0  5  0  0  0  0  0  0
   10.3661   41.4702   35.8738 O   0  0  0  0  0  1  0  0  0  0  0  0
    9.9446   45.1231   33.2618 C   0  0  2  0  0  0  0  0  0  0  0  0
   11.0797   46.0245   33.4667 N   0  0  0  0  0  0  0  0  0  0  0  0
    8.6950   45.7064   33.9557 C   0  0  0  0  0  0  0  0  0  0  0  0
    7.4520   44.9432   33.6132 C   0  0  0  0  0  0  0  0  0  0  0  0
    6.9320   44.0311   34.5353 O   0  0  0  0  0  0  0  0  0  0  0  0
    6.9103   45.0984   32.4846 O   0  0  0  0  0  0  0  0  0  0  0  0
    5.8471   43.1592   34.2298 C   0  0  0  0  0  0  0  0  0  0  0  0
    5.5604   42.2199   35.3799 C   0  0  0  0  0  0  0  0  0  0  0  0
    4.2839   41.6176   35.5395 C   0  0  0  0  0  0  0  0  0  0  0  0
    6.5833   41.9047   36.2974 C   0  0  0  0  0  0  0  0  0  0  0  0
    3.2249   41.8280   34.5884 N   0  0  0  0  0  4  0  0  0  0  0  0
    4.0506   40.7843   36.6490 C   0  0  0  0  0  0  0  0  0  0  0  0
    6.3360   41.0596   37.3795 C   0  0  0  0  0  0  0  0  0  0  0  0
    3.4904   41.8321   33.2384 O   0  0  0  0  0  1  0  0  0  0  0  0
    2.0348   41.8261   34.9660 O   0  0  0  0  0  0  0  0  0  0  0  0
    5.0696   40.5090   37.5610 C   0  0  0  0  0  0  0  0  0  0  0  0
    8.8081   40.1915   34.2079 O   0  0  0  0  0  0  0  0  0  0  0  0
   11.2384   40.7878   33.3682 O   0  0  0  0  0  0  0  0  0  0  0  0
   10.9170   40.6885   31.9950 C   0  0  0  0  0  0  0  0  0  0  0  0
   11.5255   39.3870   31.4360 C   0  0  0  0  0  0  0  0  0  0  0  0
   12.7490   39.0876   32.0797 O   0  0  0  0  0  0  0  0  0  0  0  0
   10.6101   38.1909   31.6470 C   0  0  0  0  0  0  0  0  0  0  0  0
   12.9348   37.6804   32.0291 C   0  0  0  0  0  0  0  0  0  0  0  0
    9.6125   38.0874   30.6548 O   0  0  0  0  0  0  0  0  0  0  0  0
   11.5766   37.0132   31.7025 C   0  0  0  0  0  0  0  0  0  0  0  0
   13.4901   37.2164   33.3236 N   0  0  0  0  0  0  0  0  0  0  0  0
   11.6320   36.3229   30.4741 O   0  0  0  0  0  0  0  0  0  0  0  0
   14.4763   36.3266   33.5728 C   0  0  0  0  0  0  0  0  0  0  0  0
   13.1179   37.6307   34.5688 C   0  0  0  0  0  0  0  0  0  0  0  0
   15.2065   35.6135   32.6739 N   0  0  0  0  0  0  0  0  0  0  0  0
   14.6736   36.2272   34.9182 C   0  0  0  0  0  0  0  0  0  0  0  0
   13.8228   37.0453   35.5783 N   0  0  0  0  0  0  0  0  0  0  0  0
   16.1640   34.7592   33.1547 C   0  0  0  0  0  0  0  0  0  0  0  0
   15.6518   35.3491   35.4131 C   0  0  0  0  0  0  0  0  0  0  0  0
   16.3795   34.6309   34.5042 N   0  0  0  0  0  0  0  0  0  0  0  0
   15.9004   35.1933   36.8090 N   0  0  0  0  0  0  0  0  0  0  0  0
    9.7495   45.0253   32.1695 H   0  0  0  0  0  0  0  0  0  0  0  0
   11.8824   45.6818   32.8886 H   0  0  0  0  0  0  0  0  0  0  0  0
   10.8367   46.9616   33.0700 H   0  0  0  0  0  0  0  0  0  0  0  0
    8.5483   46.7616   33.6380 H   0  0  0  0  0  0  0  0  0  0  0  0
    8.8394   45.7085   35.0585 H   0  0  0  0  0  0  0  0  0  0  0  0
    4.9523   43.7820   34.0150 H   0  0  0  0  0  0  0  0  0  0  0  0
    6.1015   42.5550   33.3322 H   0  0  0  0  0  0  0  0  0  0  0  0
    7.5767   42.3190   36.1869 H   0  0  0  0  0  0  0  0  0  0  0  0
    3.0813   40.3240   36.7936 H   0  0  0  0  0  0  0  0  0  0  0  0
    7.1288   40.8339   38.0811 H   0  0  0  0  0  0  0  0  0  0  0  0
    4.8798   39.8563   38.4034 H   0  0  0  0  0  0  0  0  0  0  0  0
    9.8269   40.7205   31.7574 H   0  0  0  0  0  0  0  0  0  0  0  0
   11.3862   41.5503   31.4740 H   0  0  0  0  0  0  0  0  0  0  0  0
   11.7274   39.5284   30.3497 H   0  0  0  0  0  0  0  0  0  0  0  0
   10.1124   38.2734   32.6390 H   0  0  0  0  0  0  0  0  0  0  0  0
   13.6685   37.4584   31.2223 H   0  0  0  0  0  0  0  0  0  0  0  0
   10.0511   38.1109   29.7648 H   0  0  0  0  0  0  0  0  0  0  0  0
   11.2800   36.3128   32.5195 H   0  0  0  0  0  0  0  0  0  0  0  0
   10.8622   35.6960   30.4645 H   0  0  0  0  0  0  0  0  0  0  0  0
   12.3355   38.3580   34.7444 H   0  0  0  0  0  0  0  0  0  0  0  0
   16.7575   34.1787   32.4620 H   0  0  0  0  0  0  0  0  0  0  0  0
   15.3531   35.7356   37.5138 H   0  0  0  0  0  0  0  0  0  0  0  0
   16.6364   34.5315   37.1415 H   0  0  0  0  0  0  0  0  0  0  0  0
  1  2  2  0
  1  3  1  0
  3  4  1  0
  4  5  1  0
  6  1  1  0
  7  6  1  0
  6  8  1  0
  8  9  1  0
  9 10  1  0
  9 11  2  0
 10 12  1  0
 12 13  1  0
 13 14  2  0
 15 13  1  0
 14 16  1  0
 14 17  1  0
 18 15  2  0
 16 19  1  0
 16 20  2  0
 17 21  2  0
 21 18  1  0
  4 22  2  0
  4 23  1  0
 24 23  1  0
 24 25  1  0
 25 26  1  0
 25 27  1  0
 26 28  1  0
 27 29  1  0
 27 30  1  0
 30 28  1  0
 28 31  1  0
 30 32  1  0
 33 31  1  0
 34 31  1  0
 35 33  2  0
 33 36  1  0
 37 34  2  0
 38 35  1  0
 36 39  2  0
 36 37  1  0
 40 38  2  0
 40 39  1  0
 39 41  1  0
  6 42  1  6
  7 43  1  0
  7 44  1  0
  8 45  1  0
  8 46  1  0
 12 47  1  0
 12 48  1  0
 15 49  1  0
 17 50  1  0
 18 51  1  0
 21 52  1  0
 24 53  1  0
 24 54  1  0
 25 55  1  0
 27 56  1  0
 28 57  1  0
 29 58  1  0
 30 59  1  0
 32 60  1  0
 34 61  1  0
 38 62  1  0
 41 63  1  0
 41 64  1  0
M  CHG  3   5  -1  16   1  19  -1
M  END
>  <EmbedRMS>  (688) 
0.08876795896618705

$$$$

     RDKit          3D

 64 67  0  0  0  0  0  0  0  0999 V2000
   10.2848   43.7725   33.8070 C   0  0  0  0  0  0  0  0  0  0  0  0
   11.4105   43.5874   34.3563 O   0  0  0  0  0  0  0  0  0  0  0  0
    9.3664   42.7314   33.7017 O   0  0  0  0  0  0  0  0  0  0  0  0
    9.8852   41.2342   34.2848 P   0  0  0  0  0  5  0  0  0  0  0  0
   10.3654   41.4696   35.8754 O   0  0  0  0  0  1  0  0  0  0  0  0
    9.9581   45.1108   33.2441 C   0  0  2  0  0  0  0  0  0  0  0  0
   11.0678   46.0366   33.4844 N   0  0  0  0  0  0  0  0  0  0  0  0
    8.6199   45.6580   33.7905 C   0  0  0  0  0  0  0  0  0  0  0  0
    8.6102   45.8025   35.2837 C   0  0  0  0  0  0  0  0  0  0  0  0
    9.0112   47.0108   35.8596 O   0  0  0  0  0  0  0  0  0  0  0  0
    8.2677   44.8273   36.0069 O   0  0  0  0  0  0  0  0  0  0  0  0
    9.0574   47.2142   37.2681 C   0  0  0  0  0  0  0  0  0  0  0  0
    9.5130   48.6218   37.5636 C   0  0  0  0  0  0  0  0  0  0  0  0
    8.8441   49.7617   37.0368 C   0  0  0  0  0  0  0  0  0  0  0  0
   10.6616   48.8059   38.3560 C   0  0  0  0  0  0  0  0  0  0  0  0
    7.6580   49.6493   36.2280 N   0  0  0  0  0  4  0  0  0  0  0  0
    9.3668   51.0413   37.2966 C   0  0  0  0  0  0  0  0  0  0  0  0
   11.1526   50.0862   38.6135 C   0  0  0  0  0  0  0  0  0  0  0  0
    7.3832   50.6045   35.2763 O   0  0  0  0  0  1  0  0  0  0  0  0
    6.7892   48.7903   36.4814 O   0  0  0  0  0  0  0  0  0  0  0  0
   10.5092   51.2011   38.0814 C   0  0  0  0  0  0  0  0  0  0  0  0
    8.8081   40.1910   34.2084 O   0  0  0  0  0  0  0  0  0  0  0  0
   11.2380   40.7910   33.3697 O   0  0  0  0  0  0  0  0  0  0  0  0
   10.9185   40.6906   31.9962 C   0  0  0  0  0  0  0  0  0  0  0  0
   11.5174   39.3824   31.4413 C   0  0  0  0  0  0  0  0  0  0  0  0
   12.7494   39.0893   32.0757 O   0  0  0  0  0  0  0  0  0  0  0  0
   10.6036   38.1899   31.6660 C   0  0  0  0  0  0  0  0  0  0  0  0
   12.9401   37.6834   32.0276 C   0  0  0  0  0  0  0  0  0  0  0  0
    9.6376   38.0785   30.6474 O   0  0  0  0  0  0  0  0  0  0  0  0
   11.5804   37.0204   31.6937 C   0  0  0  0  0  0  0  0  0  0  0  0
   13.4902   37.2177   33.3237 N   0  0  0  0  0  0  0  0  0  0  0  0
   11.6118   36.3193   30.4680 O   0  0  0  0  0  0  0  0  0  0  0  0
   14.4759   36.3272   33.5731 C   0  0  0  0  0  0  0  0  0  0  0  0
   13.1176   37.6317   34.5688 C   0  0  0  0  0  0  0  0  0  0  0  0
   15.2064   35.6142   32.6742 N   0  0  0  0  0  0  0  0  0  0  0  0
   14.6729   36.2274   34.9184 C   0  0  0  0  0  0  0  0  0  0  0  0
   13.8221   37.0457   35.5783 N   0  0  0  0  0  0  0  0  0  0  0  0
   16.1637   34.7597   33.1549 C   0  0  0  0  0  0  0  0  0  0  0  0
   15.6514   35.3493   35.4133 C   0  0  0  0  0  0  0  0  0  0  0  0
   16.3791   34.6312   34.5044 N   0  0  0  0  0  0  0  0  0  0  0  0
   15.9001   35.1935   36.8091 N   0  0  0  0  0  0  0  0  0  0  0  0
    9.8481   44.9839   32.1448 H   0  0  0  0  0  0  0  0  0  0  0  0
   10.8513   46.9477   33.0183 H   0  0  0  0  0  0  0  0  0  0  0  0
   11.1655   46.2256   34.5084 H   0  0  0  0  0  0  0  0  0  0  0  0
    7.7910   44.9829   33.4842 H   0  0  0  0  0  0  0  0  0  0  0  0
    8.4132   46.6487   33.3314 H   0  0  0  0  0  0  0  0  0  0  0  0
    8.0566   47.0418   37.7171 H   0  0  0  0  0  0  0  0  0  0  0  0
    9.7516   46.4685   37.7145 H   0  0  0  0  0  0  0  0  0  0  0  0
   11.1883   47.9551   38.7705 H   0  0  0  0  0  0  0  0  0  0  0  0
    8.8775   51.9231   36.9027 H   0  0  0  0  0  0  0  0  0  0  0  0
   12.0385   50.2133   39.2224 H   0  0  0  0  0  0  0  0  0  0  0  0
   10.8948   52.1930   38.2795 H   0  0  0  0  0  0  0  0  0  0  0  0
   11.3992   41.5455   31.4744 H   0  0  0  0  0  0  0  0  0  0  0  0
    9.8306   40.7396   31.7563 H   0  0  0  0  0  0  0  0  0  0  0  0
   11.6988   39.5092   30.3491 H   0  0  0  0  0  0  0  0  0  0  0  0
   10.1129   38.2588   32.6664 H   0  0  0  0  0  0  0  0  0  0  0  0
   13.6800   37.4629   31.2266 H   0  0  0  0  0  0  0  0  0  0  0  0
    8.8952   38.6907   30.8892 H   0  0  0  0  0  0  0  0  0  0  0  0
   11.2831   36.3060   32.4929 H   0  0  0  0  0  0  0  0  0  0  0  0
   11.8859   36.9589   29.7593 H   0  0  0  0  0  0  0  0  0  0  0  0
   12.3360   38.3600   34.7442 H   0  0  0  0  0  0  0  0  0  0  0  0
   16.7572   34.1793   32.4621 H   0  0  0  0  0  0  0  0  0  0  0  0
   16.6362   34.5318   37.1416 H   0  0  0  0  0  0  0  0  0  0  0  0
   15.3528   35.7356   37.5140 H   0  0  0  0  0  0  0  0  0  0  0  0
  1  2  2  0
  1  3  1  0
  3  4  1  0
  4  5  1  0
  6  1  1  0
  7  6  1  0
  6  8  1  0
  8  9  1  0
  9 10  1  0
  9 11  2  0
 10 12  1  0
 12 13  1  0
 13 14  2  0
 15 13  1  0
 14 16  1  0
 14 17  1  0
 18 15  2  0
 16 19  1  0
 16 20  2  0
 17 21  2  0
 21 18  1  0
  4 22  2  0
  4 23  1  0
 24 23  1  0
 24 25  1  0
 25 26  1  0
 25 27  1  0
 26 28  1  0
 27 29  1  0
 27 30  1  0
 30 28  1  0
 28 31  1  0
 30 32  1  0
 33 31  1  0
 34 31  1  0
 35 33  2  0
 33 36  1  0
 37 34  2  0
 38 35  1  0
 36 39  2  0
 36 37  1  0
 40 38  2  0
 40 39  1  0
 39 41  1  0
  6 42  1  6
  7 43  1  0
  7 44  1  0
  8 45  1  0
  8 46  1  0
 12 47  1  0
 12 48  1  0
 15 49  1  0
 17 50  1  0
 18 51  1  0
 21 52  1  0
 24 53  1  0
 24 54  1  0
 25 55  1  0
 27 56  1  0
 28 57  1  0
 29 58  1  0
 30 59  1  0
 32 60  1  0
 34 61  1  0
 38 62  1  0
 41 63  1  0
 41 64  1  0
M  CHG  3   5  -1  16   1  19  -1
M  END
>  <EmbedRMS>  (689) 
0.08819910251580389

$$$$

     RDKit          3D

 64 67  0  0  0  0  0  0  0  0999 V2000
   10.2799   43.7757   33.8069 C   0  0  0  0  0  0  0  0  0  0  0  0
   11.4055   43.5912   34.3575 O   0  0  0  0  0  0  0  0  0  0  0  0
    9.3669   42.7301   33.6987 O   0  0  0  0  0  0  0  0  0  0  0  0
    9.8864   41.2345   34.2847 P   0  0  0  0  0  5  0  0  0  0  0  0
   10.3665   41.4713   35.8750 O   0  0  0  0  0  1  0  0  0  0  0  0
    9.9539   45.1165   33.2421 C   0  0  2  0  0  0  0  0  0  0  0  0
   11.0751   46.0254   33.4876 N   0  0  0  0  0  0  0  0  0  0  0  0
    8.6510   45.6882   33.8461 C   0  0  0  0  0  0  0  0  0  0  0  0
    7.4323   45.0615   33.2402 C   0  0  0  0  0  0  0  0  0  0  0  0
    6.8238   43.9761   33.8758 O   0  0  0  0  0  0  0  0  0  0  0  0
    6.9821   45.5008   32.1467 O   0  0  0  0  0  0  0  0  0  0  0  0
    5.6546   43.3444   33.3659 C   0  0  0  0  0  0  0  0  0  0  0  0
    5.3212   42.1468   34.2161 C   0  0  0  0  0  0  0  0  0  0  0  0
    4.6043   42.2575   35.4386 C   0  0  0  0  0  0  0  0  0  0  0  0
    5.7429   40.8783   33.7787 C   0  0  0  0  0  0  0  0  0  0  0  0
    4.1758   43.5279   35.9629 N   0  0  0  0  0  4  0  0  0  0  0  0
    4.2931   41.0880   36.1555 C   0  0  0  0  0  0  0  0  0  0  0  0
    5.4385   39.7332   34.5150 C   0  0  0  0  0  0  0  0  0  0  0  0
    3.0466   43.6014   36.7459 O   0  0  0  0  0  1  0  0  0  0  0  0
    4.9028   44.5375   35.8652 O   0  0  0  0  0  0  0  0  0  0  0  0
    4.7098   39.8371   35.6978 C   0  0  0  0  0  0  0  0  0  0  0  0
    8.8122   40.1887   34.2102 O   0  0  0  0  0  0  0  0  0  0  0  0
   11.2379   40.7916   33.3687 O   0  0  0  0  0  0  0  0  0  0  0  0
   10.9149   40.6898   31.9961 C   0  0  0  0  0  0  0  0  0  0  0  0
   11.5266   39.3899   31.4376 C   0  0  0  0  0  0  0  0  0  0  0  0
   12.7504   39.0917   32.0839 O   0  0  0  0  0  0  0  0  0  0  0  0
   10.6118   38.1916   31.6454 C   0  0  0  0  0  0  0  0  0  0  0  0
   12.9427   37.6853   32.0296 C   0  0  0  0  0  0  0  0  0  0  0  0
    9.6066   38.0859   30.6605 O   0  0  0  0  0  0  0  0  0  0  0  0
   11.5842   37.0187   31.6880 C   0  0  0  0  0  0  0  0  0  0  0  0
   13.4898   37.2164   33.3250 N   0  0  0  0  0  0  0  0  0  0  0  0
   11.6199   36.3064   30.4693 O   0  0  0  0  0  0  0  0  0  0  0  0
   14.4758   36.3264   33.5738 C   0  0  0  0  0  0  0  0  0  0  0  0
   13.1175   37.6307   34.5699 C   0  0  0  0  0  0  0  0  0  0  0  0
   15.2065   35.6139   32.6746 N   0  0  0  0  0  0  0  0  0  0  0  0
   14.6731   36.2268   34.9190 C   0  0  0  0  0  0  0  0  0  0  0  0
   13.8224   37.0450   35.5792 N   0  0  0  0  0  0  0  0  0  0  0  0
   16.1640   34.7596   33.1551 C   0  0  0  0  0  0  0  0  0  0  0  0
   15.6517   35.3489   35.4136 C   0  0  0  0  0  0  0  0  0  0  0  0
   16.3795   34.6310   34.5045 N   0  0  0  0  0  0  0  0  0  0  0  0
   15.9006   35.1931   36.8094 N   0  0  0  0  0  0  0  0  0  0  0  0
    9.8351   45.0030   32.1411 H   0  0  0  0  0  0  0  0  0  0  0  0
   11.0979   46.2883   34.5009 H   0  0  0  0  0  0  0  0  0  0  0  0
   10.9189   46.9045   32.9424 H   0  0  0  0  0  0  0  0  0  0  0  0
    8.6384   45.5417   34.9486 H   0  0  0  0  0  0  0  0  0  0  0  0
    8.6018   46.7835   33.6605 H   0  0  0  0  0  0  0  0  0  0  0  0
    5.8317   43.0330   32.3125 H   0  0  0  0  0  0  0  0  0  0  0  0
    4.8058   44.0611   33.3544 H   0  0  0  0  0  0  0  0  0  0  0  0
    6.3058   40.7732   32.8590 H   0  0  0  0  0  0  0  0  0  0  0  0
    3.7424   41.1461   37.0857 H   0  0  0  0  0  0  0  0  0  0  0  0
    5.7665   38.7626   34.1655 H   0  0  0  0  0  0  0  0  0  0  0  0
    4.4723   38.9469   36.2659 H   0  0  0  0  0  0  0  0  0  0  0  0
   11.3807   41.5526   31.4736 H   0  0  0  0  0  0  0  0  0  0  0  0
    9.8244   40.7184   31.7600 H   0  0  0  0  0  0  0  0  0  0  0  0
   11.7314   39.5338   30.3522 H   0  0  0  0  0  0  0  0  0  0  0  0
   10.1210   38.2683   32.6414 H   0  0  0  0  0  0  0  0  0  0  0  0
   13.6879   37.4709   31.2319 H   0  0  0  0  0  0  0  0  0  0  0  0
   10.0252   38.1753   29.7658 H   0  0  0  0  0  0  0  0  0  0  0  0
   11.2794   36.3124   32.4916 H   0  0  0  0  0  0  0  0  0  0  0  0
   11.9867   36.9101   29.7715 H   0  0  0  0  0  0  0  0  0  0  0  0
   12.3364   38.3595   34.7454 H   0  0  0  0  0  0  0  0  0  0  0  0
   16.7576   34.1795   32.4622 H   0  0  0  0  0  0  0  0  0  0  0  0
   16.6368   34.5316   37.1418 H   0  0  0  0  0  0  0  0  0  0  0  0
   15.3532   35.7351   37.5143 H   0  0  0  0  0  0  0  0  0  0  0  0
  1  2  2  0
  1  3  1  0
  3  4  1  0
  4  5  1  0
  6  1  1  0
  7  6  1  0
  6  8  1  0
  8  9  1  0
  9 10  1  0
  9 11  2  0
 10 12  1  0
 12 13  1  0
 13 14  2  0
 15 13  1  0
 14 16  1  0
 14 17  1  0
 18 15  2  0
 16 19  1  0
 16 20  2  0
 17 21  2  0
 21 18  1  0
  4 22  2  0
  4 23  1  0
 24 23  1  0
 24 25  1  0
 25 26  1  0
 25 27  1  0
 26 28  1  0
 27 29  1  0
 27 30  1  0
 30 28  1  0
 28 31  1  0
 30 32  1  0
 33 31  1  0
 34 31  1  0
 35 33  2  0
 33 36  1  0
 37 34  2  0
 38 35  1  0
 36 39  2  0
 36 37  1  0
 40 38  2  0
 40 39  1  0
 39 41  1  0
  6 42  1  6
  7 43  1  0
  7 44  1  0
  8 45  1  0
  8 46  1  0
 12 47  1  0
 12 48  1  0
 15 49  1  0
 17 50  1  0
 18 51  1  0
 21 52  1  0
 24 53  1  0
 24 54  1  0
 25 55  1  0
 27 56  1  0
 28 57  1  0
 29 58  1  0
 30 59  1  0
 32 60  1  0
 34 61  1  0
 38 62  1  0
 41 63  1  0
 41 64  1  0
M  CHG  3   5  -1  16   1  19  -1
M  END
>  <EmbedRMS>  (690) 
0.08655444881944074

$$$$

     RDKit          3D

 64 67  0  0  0  0  0  0  0  0999 V2000
   10.2851   43.7724   33.8066 C   0  0  0  0  0  0  0  0  0  0  0  0
   11.4105   43.5877   34.3567 O   0  0  0  0  0  0  0  0  0  0  0  0
    9.3668   42.7312   33.7009 O   0  0  0  0  0  0  0  0  0  0  0  0
    9.8857   41.2340   34.2841 P   0  0  0  0  0  5  0  0  0  0  0  0
   10.3657   41.4696   35.8747 O   0  0  0  0  0  1  0  0  0  0  0  0
    9.9578   45.1109   33.2450 C   0  0  2  0  0  0  0  0  0  0  0  0
   11.0677   46.0357   33.4838 N   0  0  0  0  0  0  0  0  0  0  0  0
    8.6205   45.6603   33.7922 C   0  0  0  0  0  0  0  0  0  0  0  0
    8.5734   45.7280   35.2914 C   0  0  0  0  0  0  0  0  0  0  0  0
    9.0320   46.8739   35.9473 O   0  0  0  0  0  0  0  0  0  0  0  0
    8.1350   44.7444   35.9486 O   0  0  0  0  0  0  0  0  0  0  0  0
    8.9412   47.0381   37.3587 C   0  0  0  0  0  0  0  0  0  0  0  0
    9.5594   48.3549   37.7502 C   0  0  0  0  0  0  0  0  0  0  0  0
   10.9357   48.4840   38.0818 C   0  0  0  0  0  0  0  0  0  0  0  0
    8.7361   49.4949   37.7765 C   0  0  0  0  0  0  0  0  0  0  0  0
   11.8447   47.3698   38.0241 N   0  0  0  0  0  4  0  0  0  0  0  0
   11.4259   49.7387   38.4863 C   0  0  0  0  0  0  0  0  0  0  0  0
    9.2476   50.7342   38.1637 C   0  0  0  0  0  0  0  0  0  0  0  0
   12.9271   47.3225   38.8725 O   0  0  0  0  0  1  0  0  0  0  0  0
   11.7736   46.5373   37.0972 O   0  0  0  0  0  0  0  0  0  0  0  0
   10.5879   50.8542   38.5252 C   0  0  0  0  0  0  0  0  0  0  0  0
    8.8082   40.1912   34.2080 O   0  0  0  0  0  0  0  0  0  0  0  0
   11.2384   40.7903   33.3688 O   0  0  0  0  0  0  0  0  0  0  0  0
   10.9193   40.6895   31.9950 C   0  0  0  0  0  0  0  0  0  0  0  0
   11.5171   39.3801   31.4398 C   0  0  0  0  0  0  0  0  0  0  0  0
   12.7478   39.0861   32.0734 O   0  0  0  0  0  0  0  0  0  0  0  0
   10.6031   38.1891   31.6666 C   0  0  0  0  0  0  0  0  0  0  0  0
   12.9335   37.6796   32.0279 C   0  0  0  0  0  0  0  0  0  0  0  0
    9.6397   38.0778   30.6456 O   0  0  0  0  0  0  0  0  0  0  0  0
   11.5739   37.0154   31.7057 C   0  0  0  0  0  0  0  0  0  0  0  0
   13.4903   37.2178   33.3230 N   0  0  0  0  0  0  0  0  0  0  0  0
   11.6211   36.3376   30.4695 O   0  0  0  0  0  0  0  0  0  0  0  0
   14.4761   36.3272   33.5725 C   0  0  0  0  0  0  0  0  0  0  0  0
   13.1178   37.6316   34.5683 C   0  0  0  0  0  0  0  0  0  0  0  0
   15.2063   35.6139   32.6737 N   0  0  0  0  0  0  0  0  0  0  0  0
   14.6733   36.2277   34.9180 C   0  0  0  0  0  0  0  0  0  0  0  0
   13.8225   37.0459   35.5779 N   0  0  0  0  0  0  0  0  0  0  0  0
   16.1637   34.7595   33.1546 C   0  0  0  0  0  0  0  0  0  0  0  0
   15.6515   35.3494   35.4129 C   0  0  0  0  0  0  0  0  0  0  0  0
   16.3792   34.6312   34.5041 N   0  0  0  0  0  0  0  0  0  0  0  0
   15.9002   35.1935   36.8088 N   0  0  0  0  0  0  0  0  0  0  0  0
    9.8471   44.9846   32.1455 H   0  0  0  0  0  0  0  0  0  0  0  0
   11.1473   46.2437   34.5046 H   0  0  0  0  0  0  0  0  0  0  0  0
   10.8619   46.9389   32.9978 H   0  0  0  0  0  0  0  0  0  0  0  0
    8.4421   46.6764   33.3793 H   0  0  0  0  0  0  0  0  0  0  0  0
    7.7868   45.0180   33.4326 H   0  0  0  0  0  0  0  0  0  0  0  0
    7.8712   47.0137   37.6620 H   0  0  0  0  0  0  0  0  0  0  0  0
    9.4394   46.1948   37.8823 H   0  0  0  0  0  0  0  0  0  0  0  0
    7.6895   49.4220   37.5062 H   0  0  0  0  0  0  0  0  0  0  0  0
   12.4685   49.8595   38.7521 H   0  0  0  0  0  0  0  0  0  0  0  0
    8.6017   51.6025   38.1873 H   0  0  0  0  0  0  0  0  0  0  0  0
   10.9816   51.8159   38.8284 H   0  0  0  0  0  0  0  0  0  0  0  0
   11.4009   41.5437   31.4730 H   0  0  0  0  0  0  0  0  0  0  0  0
    9.8315   40.7395   31.7551 H   0  0  0  0  0  0  0  0  0  0  0  0
   11.6982   39.5044   30.3472 H   0  0  0  0  0  0  0  0  0  0  0  0
   10.1089   38.2631   32.6649 H   0  0  0  0  0  0  0  0  0  0  0  0
   13.6655   37.4541   31.2206 H   0  0  0  0  0  0  0  0  0  0  0  0
    8.8965   38.6900   30.8853 H   0  0  0  0  0  0  0  0  0  0  0  0
   11.2847   36.3061   32.5176 H   0  0  0  0  0  0  0  0  0  0  0  0
   10.8523   35.7095   30.4590 H   0  0  0  0  0  0  0  0  0  0  0  0
   12.3353   38.3588   34.7438 H   0  0  0  0  0  0  0  0  0  0  0  0
   16.7572   34.1790   32.4619 H   0  0  0  0  0  0  0  0  0  0  0  0
   16.6360   34.5316   37.1413 H   0  0  0  0  0  0  0  0  0  0  0  0
   15.3530   35.7358   37.5137 H   0  0  0  0  0  0  0  0  0  0  0  0
  1  2  2  0
  1  3  1  0
  3  4  1  0
  4  5  1  0
  6  1  1  0
  7  6  1  0
  6  8  1  0
  8  9  1  0
  9 10  1  0
  9 11  2  0
 10 12  1  0
 12 13  1  0
 13 14  2  0
 15 13  1  0
 14 16  1  0
 14 17  1  0
 18 15  2  0
 16 19  1  0
 16 20  2  0
 17 21  2  0
 21 18  1  0
  4 22  2  0
  4 23  1  0
 24 23  1  0
 24 25  1  0
 25 26  1  0
 25 27  1  0
 26 28  1  0
 27 29  1  0
 27 30  1  0
 30 28  1  0
 28 31  1  0
 30 32  1  0
 33 31  1  0
 34 31  1  0
 35 33  2  0
 33 36  1  0
 37 34  2  0
 38 35  1  0
 36 39  2  0
 36 37  1  0
 40 38  2  0
 40 39  1  0
 39 41  1  0
  6 42  1  6
  7 43  1  0
  7 44  1  0
  8 45  1  0
  8 46  1  0
 12 47  1  0
 12 48  1  0
 15 49  1  0
 17 50  1  0
 18 51  1  0
 21 52  1  0
 24 53  1  0
 24 54  1  0
 25 55  1  0
 27 56  1  0
 28 57  1  0
 29 58  1  0
 30 59  1  0
 32 60  1  0
 34 61  1  0
 38 62  1  0
 41 63  1  0
 41 64  1  0
M  CHG  3   5  -1  16   1  19  -1
M  END
>  <EmbedRMS>  (691) 
0.08930923328356126

$$$$

     RDKit          3D

 64 67  0  0  0  0  0  0  0  0999 V2000
   10.2849   43.7719   33.8054 C   0  0  0  0  0  0  0  0  0  0  0  0
   11.4124   43.5853   34.3507 O   0  0  0  0  0  0  0  0  0  0  0  0
    9.3656   42.7315   33.7022 O   0  0  0  0  0  0  0  0  0  0  0  0
    9.8850   41.2347   34.2855 P   0  0  0  0  0  5  0  0  0  0  0  0
   10.3655   41.4710   35.8759 O   0  0  0  0  0  1  0  0  0  0  0  0
    9.9613   45.1090   33.2382 C   0  0  2  0  0  0  0  0  0  0  0  0
   11.0643   46.0379   33.4932 N   0  0  0  0  0  0  0  0  0  0  0  0
    8.6099   45.6558   33.7542 C   0  0  0  0  0  0  0  0  0  0  0  0
    8.5040   45.6809   35.2519 C   0  0  0  0  0  0  0  0  0  0  0  0
    9.0397   46.7588   35.9674 O   0  0  0  0  0  0  0  0  0  0  0  0
    7.9492   44.7213   35.8544 O   0  0  0  0  0  0  0  0  0  0  0  0
    8.9074   46.9124   37.3821 C   0  0  0  0  0  0  0  0  0  0  0  0
   10.0512   46.2854   38.1588 C   0  0  0  0  0  0  0  0  0  0  0  0
   10.3339   46.6929   39.4928 C   0  0  0  0  0  0  0  0  0  0  0  0
   10.8484   45.2788   37.5756 C   0  0  0  0  0  0  0  0  0  0  0  0
    9.5255   47.6655   40.1799 N   0  0  0  0  0  4  0  0  0  0  0  0
   11.4354   46.1350   40.1656 C   0  0  0  0  0  0  0  0  0  0  0  0
   11.9247   44.7252   38.2691 C   0  0  0  0  0  0  0  0  0  0  0  0
   10.0948   48.4850   41.1274 O   0  0  0  0  0  1  0  0  0  0  0  0
    8.2826   47.6536   40.0664 O   0  0  0  0  0  0  0  0  0  0  0  0
   12.2235   45.1588   39.5576 C   0  0  0  0  0  0  0  0  0  0  0  0
    8.8081   40.1912   34.2094 O   0  0  0  0  0  0  0  0  0  0  0  0
   11.2377   40.7912   33.3702 O   0  0  0  0  0  0  0  0  0  0  0  0
   10.9183   40.6907   31.9967 C   0  0  0  0  0  0  0  0  0  0  0  0
   11.5172   39.3826   31.4416 C   0  0  0  0  0  0  0  0  0  0  0  0
   12.7493   39.0894   32.0758 O   0  0  0  0  0  0  0  0  0  0  0  0
   10.6035   38.1900   31.6660 C   0  0  0  0  0  0  0  0  0  0  0  0
   12.9400   37.6835   32.0277 C   0  0  0  0  0  0  0  0  0  0  0  0
    9.6376   38.0786   30.6474 O   0  0  0  0  0  0  0  0  0  0  0  0
   11.5803   37.0205   31.6937 C   0  0  0  0  0  0  0  0  0  0  0  0
   13.4902   37.2178   33.3237 N   0  0  0  0  0  0  0  0  0  0  0  0
   11.6118   36.3194   30.4680 O   0  0  0  0  0  0  0  0  0  0  0  0
   14.4758   36.3272   33.5731 C   0  0  0  0  0  0  0  0  0  0  0  0
   13.1176   37.6318   34.5688 C   0  0  0  0  0  0  0  0  0  0  0  0
   15.2064   35.6142   32.6742 N   0  0  0  0  0  0  0  0  0  0  0  0
   14.6729   36.2274   34.9184 C   0  0  0  0  0  0  0  0  0  0  0  0
   13.8221   37.0458   35.5784 N   0  0  0  0  0  0  0  0  0  0  0  0
   16.1637   34.7597   33.1549 C   0  0  0  0  0  0  0  0  0  0  0  0
   15.6514   35.3493   35.4133 C   0  0  0  0  0  0  0  0  0  0  0  0
   16.3791   34.6312   34.5043 N   0  0  0  0  0  0  0  0  0  0  0  0
   15.9001   35.1935   36.8091 N   0  0  0  0  0  0  0  0  0  0  0  0
    9.8727   44.9801   32.1371 H   0  0  0  0  0  0  0  0  0  0  0  0
   10.8658   46.9381   32.9988 H   0  0  0  0  0  0  0  0  0  0  0  0
   11.1265   46.2514   34.5145 H   0  0  0  0  0  0  0  0  0  0  0  0
    7.7860   45.0312   33.3440 H   0  0  0  0  0  0  0  0  0  0  0  0
    8.4536   46.6848   33.3651 H   0  0  0  0  0  0  0  0  0  0  0  0
    8.8953   48.0037   37.5855 H   0  0  0  0  0  0  0  0  0  0  0  0
    7.9383   46.4928   37.7289 H   0  0  0  0  0  0  0  0  0  0  0  0
   10.6547   44.9168   36.5793 H   0  0  0  0  0  0  0  0  0  0  0  0
   11.6712   46.4406   41.1771 H   0  0  0  0  0  0  0  0  0  0  0  0
   12.5311   43.9591   37.8029 H   0  0  0  0  0  0  0  0  0  0  0  0
   13.0615   44.7296   40.0917 H   0  0  0  0  0  0  0  0  0  0  0  0
   11.3988   41.5457   31.4749 H   0  0  0  0  0  0  0  0  0  0  0  0
    9.8303   40.7395   31.7569 H   0  0  0  0  0  0  0  0  0  0  0  0
   11.6986   39.5096   30.3493 H   0  0  0  0  0  0  0  0  0  0  0  0
   10.1128   38.2587   32.6665 H   0  0  0  0  0  0  0  0  0  0  0  0
   13.6800   37.4631   31.2266 H   0  0  0  0  0  0  0  0  0  0  0  0
    8.8952   38.6908   30.8891 H   0  0  0  0  0  0  0  0  0  0  0  0
   11.2831   36.3061   32.4929 H   0  0  0  0  0  0  0  0  0  0  0  0
   11.8859   36.9591   29.7593 H   0  0  0  0  0  0  0  0  0  0  0  0
   12.3361   38.3601   34.7442 H   0  0  0  0  0  0  0  0  0  0  0  0
   16.7572   34.1793   32.4621 H   0  0  0  0  0  0  0  0  0  0  0  0
   15.3528   35.7357   37.5140 H   0  0  0  0  0  0  0  0  0  0  0  0
   16.6362   34.5318   37.1416 H   0  0  0  0  0  0  0  0  0  0  0  0
  1  2  2  0
  1  3  1  0
  3  4  1  0
  4  5  1  0
  6  1  1  0
  7  6  1  0
  6  8  1  0
  8  9  1  0
  9 10  1  0
  9 11  2  0
 10 12  1  0
 12 13  1  0
 13 14  2  0
 15 13  1  0
 14 16  1  0
 14 17  1  0
 18 15  2  0
 16 19  1  0
 16 20  2  0
 17 21  2  0
 21 18  1  0
  4 22  2  0
  4 23  1  0
 24 23  1  0
 24 25  1  0
 25 26  1  0
 25 27  1  0
 26 28  1  0
 27 29  1  0
 27 30  1  0
 30 28  1  0
 28 31  1  0
 30 32  1  0
 33 31  1  0
 34 31  1  0
 35 33  2  0
 33 36  1  0
 37 34  2  0
 38 35  1  0
 36 39  2  0
 36 37  1  0
 40 38  2  0
 40 39  1  0
 39 41  1  0
  6 42  1  6
  7 43  1  0
  7 44  1  0
  8 45  1  0
  8 46  1  0
 12 47  1  0
 12 48  1  0
 15 49  1  0
 17 50  1  0
 18 51  1  0
 21 52  1  0
 24 53  1  0
 24 54  1  0
 25 55  1  0
 27 56  1  0
 28 57  1  0
 29 58  1  0
 30 59  1  0
 32 60  1  0
 34 61  1  0
 38 62  1  0
 41 63  1  0
 41 64  1  0
M  CHG  3   5  -1  16   1  19  -1
M  END
>  <EmbedRMS>  (692) 
0.0880248732295349

$$$$

     RDKit          3D

 64 67  0  0  0  0  0  0  0  0999 V2000
   10.2820   43.7759   33.8091 C   0  0  0  0  0  0  0  0  0  0  0  0
   11.4050   43.5927   34.3651 O   0  0  0  0  0  0  0  0  0  0  0  0
    9.3749   42.7267   33.6893 O   0  0  0  0  0  0  0  0  0  0  0  0
    9.8872   41.2326   34.2828 P   0  0  0  0  0  5  0  0  0  0  0  0
   10.3638   41.4718   35.8739 O   0  0  0  0  0  1  0  0  0  0  0  0
    9.9387   45.1276   33.2741 C   0  0  2  0  0  0  0  0  0  0  0  0
   11.0822   46.0225   33.4598 N   0  0  0  0  0  0  0  0  0  0  0  0
    8.7090   45.7151   34.0017 C   0  0  0  0  0  0  0  0  0  0  0  0
    7.4481   44.9779   33.6671 C   0  0  0  0  0  0  0  0  0  0  0  0
    7.0421   43.9169   34.4800 O   0  0  0  0  0  0  0  0  0  0  0  0
    6.7954   45.2842   32.6322 O   0  0  0  0  0  0  0  0  0  0  0  0
    5.9520   43.0588   34.1552 C   0  0  0  0  0  0  0  0  0  0  0  0
    5.9454   41.8405   35.0519 C   0  0  0  0  0  0  0  0  0  0  0  0
    5.3937   40.6041   34.6198 C   0  0  0  0  0  0  0  0  0  0  0  0
    6.5007   41.9250   36.3449 C   0  0  0  0  0  0  0  0  0  0  0  0
    4.7297   40.4705   33.3509 N   0  0  0  0  0  4  0  0  0  0  0  0
    5.4944   39.4774   35.4545 C   0  0  0  0  0  0  0  0  0  0  0  0
    6.5742   40.7981   37.1643 C   0  0  0  0  0  0  0  0  0  0  0  0
    4.7664   39.2700   32.6794 O   0  0  0  0  0  1  0  0  0  0  0  0
    3.9626   41.3655   32.9401 O   0  0  0  0  0  0  0  0  0  0  0  0
    6.0832   39.5743   36.7155 C   0  0  0  0  0  0  0  0  0  0  0  0
    8.8086   40.1910   34.2071 O   0  0  0  0  0  0  0  0  0  0  0  0
   11.2385   40.7864   33.3688 O   0  0  0  0  0  0  0  0  0  0  0  0
   10.9168   40.6874   31.9955 C   0  0  0  0  0  0  0  0  0  0  0  0
   11.5264   39.3867   31.4361 C   0  0  0  0  0  0  0  0  0  0  0  0
   12.7496   39.0888   32.0811 O   0  0  0  0  0  0  0  0  0  0  0  0
   10.6123   38.1893   31.6462 C   0  0  0  0  0  0  0  0  0  0  0  0
   12.9373   37.6822   32.0299 C   0  0  0  0  0  0  0  0  0  0  0  0
    9.6148   38.0839   30.6541 O   0  0  0  0  0  0  0  0  0  0  0  0
   11.5791   37.0135   31.7014 C   0  0  0  0  0  0  0  0  0  0  0  0
   13.4906   37.2168   33.3242 N   0  0  0  0  0  0  0  0  0  0  0  0
   11.6213   36.3251   30.4725 O   0  0  0  0  0  0  0  0  0  0  0  0
   14.4763   36.3266   33.5731 C   0  0  0  0  0  0  0  0  0  0  0  0
   13.1180   37.6307   34.5693 C   0  0  0  0  0  0  0  0  0  0  0  0
   15.2065   35.6136   32.6740 N   0  0  0  0  0  0  0  0  0  0  0  0
   14.6735   36.2270   34.9185 C   0  0  0  0  0  0  0  0  0  0  0  0
   13.8228   37.0451   35.5787 N   0  0  0  0  0  0  0  0  0  0  0  0
   16.1639   34.7593   33.1547 C   0  0  0  0  0  0  0  0  0  0  0  0
   15.6518   35.3489   35.4132 C   0  0  0  0  0  0  0  0  0  0  0  0
   16.3795   34.6308   34.5042 N   0  0  0  0  0  0  0  0  0  0  0  0
   15.9005   35.1931   36.8090 N   0  0  0  0  0  0  0  0  0  0  0  0
    9.7177   45.0373   32.1861 H   0  0  0  0  0  0  0  0  0  0  0  0
   10.8380   46.9610   33.0674 H   0  0  0  0  0  0  0  0  0  0  0  0
   11.8728   45.6754   32.8677 H   0  0  0  0  0  0  0  0  0  0  0  0
    8.8709   45.6910   35.1018 H   0  0  0  0  0  0  0  0  0  0  0  0
    8.5746   46.7799   33.7110 H   0  0  0  0  0  0  0  0  0  0  0  0
    6.0669   42.7395   33.0968 H   0  0  0  0  0  0  0  0  0  0  0  0
    4.9959   43.6118   34.2724 H   0  0  0  0  0  0  0  0  0  0  0  0
    6.8966   42.8605   36.7192 H   0  0  0  0  0  0  0  0  0  0  0  0
    5.0930   38.5234   35.1371 H   0  0  0  0  0  0  0  0  0  0  0  0
    7.0183   40.8735   38.1485 H   0  0  0  0  0  0  0  0  0  0  0  0
    6.1456   38.7010   37.3518 H   0  0  0  0  0  0  0  0  0  0  0  0
   11.3851   41.5499   31.4746 H   0  0  0  0  0  0  0  0  0  0  0  0
    9.8267   40.7182   31.7580 H   0  0  0  0  0  0  0  0  0  0  0  0
   11.7290   39.5286   30.3500 H   0  0  0  0  0  0  0  0  0  0  0  0
   10.1140   38.2721   32.6381 H   0  0  0  0  0  0  0  0  0  0  0  0
   13.6724   37.4626   31.2239 H   0  0  0  0  0  0  0  0  0  0  0  0
   10.0532   38.1085   29.7640 H   0  0  0  0  0  0  0  0  0  0  0  0
   11.2643   36.3133   32.5108 H   0  0  0  0  0  0  0  0  0  0  0  0
   12.1541   35.5028   30.6316 H   0  0  0  0  0  0  0  0  0  0  0  0
   12.3359   38.3584   34.7449 H   0  0  0  0  0  0  0  0  0  0  0  0
   16.7574   34.1788   32.4619 H   0  0  0  0  0  0  0  0  0  0  0  0
   16.6366   34.5314   37.1415 H   0  0  0  0  0  0  0  0  0  0  0  0
   15.3532   35.7353   37.5139 H   0  0  0  0  0  0  0  0  0  0  0  0
  1  2  2  0
  1  3  1  0
  3  4  1  0
  4  5  1  0
  6  1  1  0
  7  6  1  0
  6  8  1  0
  8  9  1  0
  9 10  1  0
  9 11  2  0
 10 12  1  0
 12 13  1  0
 13 14  2  0
 15 13  1  0
 14 16  1  0
 14 17  1  0
 18 15  2  0
 16 19  1  0
 16 20  2  0
 17 21  2  0
 21 18  1  0
  4 22  2  0
  4 23  1  0
 24 23  1  0
 24 25  1  0
 25 26  1  0
 25 27  1  0
 26 28  1  0
 27 29  1  0
 27 30  1  0
 30 28  1  0
 28 31  1  0
 30 32  1  0
 33 31  1  0
 34 31  1  0
 35 33  2  0
 33 36  1  0
 37 34  2  0
 38 35  1  0
 36 39  2  0
 36 37  1  0
 40 38  2  0
 40 39  1  0
 39 41  1  0
  6 42  1  6
  7 43  1  0
  7 44  1  0
  8 45  1  0
  8 46  1  0
 12 47  1  0
 12 48  1  0
 15 49  1  0
 17 50  1  0
 18 51  1  0
 21 52  1  0
 24 53  1  0
 24 54  1  0
 25 55  1  0
 27 56  1  0
 28 57  1  0
 29 58  1  0
 30 59  1  0
 32 60  1  0
 34 61  1  0
 38 62  1  0
 41 63  1  0
 41 64  1  0
M  CHG  3   5  -1  16   1  19  -1
M  END
>  <EmbedRMS>  (693) 
0.08910072389124911

$$$$

     RDKit          3D

 64 67  0  0  0  0  0  0  0  0999 V2000
   10.2894   43.7677   33.8037 C   0  0  0  0  0  0  0  0  0  0  0  0
   11.4113   43.5796   34.3593 O   0  0  0  0  0  0  0  0  0  0  0  0
    9.3667   42.7302   33.7013 O   0  0  0  0  0  0  0  0  0  0  0  0
    9.8836   41.2331   34.2862 P   0  0  0  0  0  5  0  0  0  0  0  0
   10.3679   41.4680   35.8751 O   0  0  0  0  0  1  0  0  0  0  0  0
    9.9689   45.1094   33.2352 C   0  0  2  0  0  0  0  0  0  0  0  0
   11.0555   46.0581   33.4890 N   0  0  0  0  0  0  0  0  0  0  0  0
    8.6309   45.6613   33.7647 C   0  0  0  0  0  0  0  0  0  0  0  0
    8.6004   45.7828   35.2598 C   0  0  0  0  0  0  0  0  0  0  0  0
    8.5243   44.6236   36.0359 O   0  0  0  0  0  0  0  0  0  0  0  0
    8.6567   46.9207   35.8024 O   0  0  0  0  0  0  0  0  0  0  0  0
    8.4586   44.6409   37.4578 C   0  0  0  0  0  0  0  0  0  0  0  0
    8.4556   43.2254   37.9801 C   0  0  0  0  0  0  0  0  0  0  0  0
    7.5501   42.2409   37.4966 C   0  0  0  0  0  0  0  0  0  0  0  0
    9.4120   42.8621   38.9464 C   0  0  0  0  0  0  0  0  0  0  0  0
    6.5355   42.5521   36.5234 N   0  0  0  0  0  4  0  0  0  0  0  0
    7.6627   40.9188   37.9666 C   0  0  0  0  0  0  0  0  0  0  0  0
    9.4925   41.5489   39.4115 C   0  0  0  0  0  0  0  0  0  0  0  0
    5.8489   43.7427   36.5821 O   0  0  0  0  0  1  0  0  0  0  0  0
    6.1482   41.6764   35.7202 O   0  0  0  0  0  0  0  0  0  0  0  0
    8.6243   40.5780   38.9181 C   0  0  0  0  0  0  0  0  0  0  0  0
    8.8061   40.1905   34.2113 O   0  0  0  0  0  0  0  0  0  0  0  0
   11.2353   40.7891   33.3701 O   0  0  0  0  0  0  0  0  0  0  0  0
   10.9141   40.6894   31.9971 C   0  0  0  0  0  0  0  0  0  0  0  0
   11.5262   39.3900   31.4377 C   0  0  0  0  0  0  0  0  0  0  0  0
   12.7503   39.0920   32.0839 O   0  0  0  0  0  0  0  0  0  0  0  0
   10.6119   38.1915   31.6452 C   0  0  0  0  0  0  0  0  0  0  0  0
   12.9429   37.6857   32.0295 C   0  0  0  0  0  0  0  0  0  0  0  0
    9.6065   38.0852   30.6605 O   0  0  0  0  0  0  0  0  0  0  0  0
   11.5846   37.0188   31.6880 C   0  0  0  0  0  0  0  0  0  0  0  0
   13.4901   37.2166   33.3250 N   0  0  0  0  0  0  0  0  0  0  0  0
   11.6205   36.3068   30.4692 O   0  0  0  0  0  0  0  0  0  0  0  0
   14.4760   36.3265   33.5738 C   0  0  0  0  0  0  0  0  0  0  0  0
   13.1176   37.6307   34.5699 C   0  0  0  0  0  0  0  0  0  0  0  0
   15.2065   35.6138   32.6746 N   0  0  0  0  0  0  0  0  0  0  0  0
   14.6731   36.2267   34.9190 C   0  0  0  0  0  0  0  0  0  0  0  0
   13.8223   37.0448   35.5793 N   0  0  0  0  0  0  0  0  0  0  0  0
   16.1637   34.7591   33.1551 C   0  0  0  0  0  0  0  0  0  0  0  0
   15.6516   35.3488   35.4134 C   0  0  0  0  0  0  0  0  0  0  0  0
   16.3792   34.6306   34.5045 N   0  0  0  0  0  0  0  0  0  0  0  0
   15.9003   35.1933   36.8091 N   0  0  0  0  0  0  0  0  0  0  0  0
    9.8668   44.9885   32.1343 H   0  0  0  0  0  0  0  0  0  0  0  0
   11.9215   45.7306   33.0012 H   0  0  0  0  0  0  0  0  0  0  0  0
   11.2586   46.1135   34.5142 H   0  0  0  0  0  0  0  0  0  0  0  0
    8.4388   46.6558   33.3053 H   0  0  0  0  0  0  0  0  0  0  0  0
    7.8030   44.9910   33.4476 H   0  0  0  0  0  0  0  0  0  0  0  0
    7.5399   45.1665   37.7945 H   0  0  0  0  0  0  0  0  0  0  0  0
    9.3329   45.2065   37.8502 H   0  0  0  0  0  0  0  0  0  0  0  0
   10.1106   43.5940   39.3333 H   0  0  0  0  0  0  0  0  0  0  0  0
    6.9921   40.1495   37.6049 H   0  0  0  0  0  0  0  0  0  0  0  0
   10.2369   41.2815   40.1505 H   0  0  0  0  0  0  0  0  0  0  0  0
    8.6936   39.5588   39.2761 H   0  0  0  0  0  0  0  0  0  0  0  0
    9.8239   40.7187   31.7606 H   0  0  0  0  0  0  0  0  0  0  0  0
   11.3814   41.5522   31.4763 H   0  0  0  0  0  0  0  0  0  0  0  0
   11.7302   39.5350   30.3522 H   0  0  0  0  0  0  0  0  0  0  0  0
   10.1211   38.2683   32.6411 H   0  0  0  0  0  0  0  0  0  0  0  0
   13.6886   37.4719   31.2320 H   0  0  0  0  0  0  0  0  0  0  0  0
   10.0247   38.1752   29.7656 H   0  0  0  0  0  0  0  0  0  0  0  0
   11.2794   36.3126   32.4917 H   0  0  0  0  0  0  0  0  0  0  0  0
   11.9875   36.9109   29.7717 H   0  0  0  0  0  0  0  0  0  0  0  0
   12.3367   38.3595   34.7454 H   0  0  0  0  0  0  0  0  0  0  0  0
   16.7574   34.1792   32.4621 H   0  0  0  0  0  0  0  0  0  0  0  0
   16.6364   34.5314   37.1410 H   0  0  0  0  0  0  0  0  0  0  0  0
   15.3524   35.7354   37.5137 H   0  0  0  0  0  0  0  0  0  0  0  0
  1  2  2  0
  1  3  1  0
  3  4  1  0
  4  5  1  0
  6  1  1  0
  7  6  1  0
  6  8  1  0
  8  9  1  0
  9 10  1  0
  9 11  2  0
 10 12  1  0
 12 13  1  0
 13 14  2  0
 15 13  1  0
 14 16  1  0
 14 17  1  0
 18 15  2  0
 16 19  1  0
 16 20  2  0
 17 21  2  0
 21 18  1  0
  4 22  2  0
  4 23  1  0
 24 23  1  0
 24 25  1  0
 25 26  1  0
 25 27  1  0
 26 28  1  0
 27 29  1  0
 27 30  1  0
 30 28  1  0
 28 31  1  0
 30 32  1  0
 33 31  1  0
 34 31  1  0
 35 33  2  0
 33 36  1  0
 37 34  2  0
 38 35  1  0
 36 39  2  0
 36 37  1  0
 40 38  2  0
 40 39  1  0
 39 41  1  0
  6 42  1  6
  7 43  1  0
  7 44  1  0
  8 45  1  0
  8 46  1  0
 12 47  1  0
 12 48  1  0
 15 49  1  0
 17 50  1  0
 18 51  1  0
 21 52  1  0
 24 53  1  0
 24 54  1  0
 25 55  1  0
 27 56  1  0
 28 57  1  0
 29 58  1  0
 30 59  1  0
 32 60  1  0
 34 61  1  0
 38 62  1  0
 41 63  1  0
 41 64  1  0
M  CHG  3   5  -1  16   1  19  -1
M  END
>  <EmbedRMS>  (694) 
0.0876956082614312

$$$$

     RDKit          3D

 64 67  0  0  0  0  0  0  0  0999 V2000
   10.2801   43.7769   33.8113 C   0  0  0  0  0  0  0  0  0  0  0  0
   11.4062   43.5922   34.3603 O   0  0  0  0  0  0  0  0  0  0  0  0
    9.3718   42.7281   33.6918 O   0  0  0  0  0  0  0  0  0  0  0  0
    9.8868   41.2336   34.2830 P   0  0  0  0  0  5  0  0  0  0  0  0
   10.3649   41.4720   35.8738 O   0  0  0  0  0  1  0  0  0  0  0  0
    9.9425   45.1232   33.2665 C   0  0  2  0  0  0  0  0  0  0  0  0
   11.0812   46.0216   33.4670 N   0  0  0  0  0  0  0  0  0  0  0  0
    8.6744   45.7133   33.9270 C   0  0  0  0  0  0  0  0  0  0  0  0
    7.4316   44.9346   33.5742 C   0  0  0  0  0  0  0  0  0  0  0  0
    6.8100   44.0498   34.4663 O   0  0  0  0  0  0  0  0  0  0  0  0
    6.9530   45.0535   32.4156 O   0  0  0  0  0  0  0  0  0  0  0  0
    7.1833   43.8812   35.8337 C   0  0  0  0  0  0  0  0  0  0  0  0
    6.4395   42.7226   36.4573 C   0  0  0  0  0  0  0  0  0  0  0  0
    6.1776   42.6724   37.8531 C   0  0  0  0  0  0  0  0  0  0  0  0
    6.0367   41.6413   35.6482 C   0  0  0  0  0  0  0  0  0  0  0  0
    6.6554   43.6874   38.7534 N   0  0  0  0  0  4  0  0  0  0  0  0
    5.4429   41.5938   38.3760 C   0  0  0  0  0  0  0  0  0  0  0  0
    5.3279   40.5694   36.1915 C   0  0  0  0  0  0  0  0  0  0  0  0
    5.9359   43.9947   39.8853 O   0  0  0  0  0  1  0  0  0  0  0  0
    7.8080   44.1507   38.6305 O   0  0  0  0  0  0  0  0  0  0  0  0
    5.0205   40.5517   37.5501 C   0  0  0  0  0  0  0  0  0  0  0  0
    8.8087   40.1913   34.2081 O   0  0  0  0  0  0  0  0  0  0  0  0
   11.2380   40.7888   33.3677 O   0  0  0  0  0  0  0  0  0  0  0  0
   10.9147   40.6856   31.9949 C   0  0  0  0  0  0  0  0  0  0  0  0
   11.5173   39.3795   31.4407 C   0  0  0  0  0  0  0  0  0  0  0  0
   12.7492   39.0883   32.0758 O   0  0  0  0  0  0  0  0  0  0  0  0
   10.6052   38.1877   31.6660 C   0  0  0  0  0  0  0  0  0  0  0  0
   12.9412   37.6825   32.0277 C   0  0  0  0  0  0  0  0  0  0  0  0
    9.6358   38.0931   30.6504 O   0  0  0  0  0  0  0  0  0  0  0  0
   11.5826   37.0178   31.6937 C   0  0  0  0  0  0  0  0  0  0  0  0
   13.4908   37.2175   33.3239 N   0  0  0  0  0  0  0  0  0  0  0  0
   11.6139   36.3179   30.4675 O   0  0  0  0  0  0  0  0  0  0  0  0
   14.4763   36.3269   33.5733 C   0  0  0  0  0  0  0  0  0  0  0  0
   13.1179   37.6316   34.5688 C   0  0  0  0  0  0  0  0  0  0  0  0
   15.2067   35.6140   32.6744 N   0  0  0  0  0  0  0  0  0  0  0  0
   14.6731   36.2273   34.9186 C   0  0  0  0  0  0  0  0  0  0  0  0
   13.8223   37.0456   35.5785 N   0  0  0  0  0  0  0  0  0  0  0  0
   16.1639   34.7594   33.1551 C   0  0  0  0  0  0  0  0  0  0  0  0
   15.6515   35.3491   35.4135 C   0  0  0  0  0  0  0  0  0  0  0  0
   16.3793   34.6310   34.5046 N   0  0  0  0  0  0  0  0  0  0  0  0
   15.9002   35.1933   36.8093 N   0  0  0  0  0  0  0  0  0  0  0  0
    9.7690   45.0146   32.1727 H   0  0  0  0  0  0  0  0  0  0  0  0
   11.1603   46.2714   34.4807 H   0  0  0  0  0  0  0  0  0  0  0  0
   10.9034   46.9091   32.9423 H   0  0  0  0  0  0  0  0  0  0  0  0
    8.8117   45.7840   35.0256 H   0  0  0  0  0  0  0  0  0  0  0  0
    8.5331   46.7546   33.5640 H   0  0  0  0  0  0  0  0  0  0  0  0
    6.9457   44.8246   36.3693 H   0  0  0  0  0  0  0  0  0  0  0  0
    8.2703   43.6738   35.9146 H   0  0  0  0  0  0  0  0  0  0  0  0
    6.2633   41.6260   34.5896 H   0  0  0  0  0  0  0  0  0  0  0  0
    5.2219   41.5441   39.4347 H   0  0  0  0  0  0  0  0  0  0  0  0
    5.0146   39.7509   35.5562 H   0  0  0  0  0  0  0  0  0  0  0  0
    4.4676   39.7204   37.9681 H   0  0  0  0  0  0  0  0  0  0  0  0
    9.8247   40.7213   31.7579 H   0  0  0  0  0  0  0  0  0  0  0  0
   11.3874   41.5431   31.4699 H   0  0  0  0  0  0  0  0  0  0  0  0
   11.6995   39.5064   30.3485 H   0  0  0  0  0  0  0  0  0  0  0  0
   10.1123   38.2724   32.6633 H   0  0  0  0  0  0  0  0  0  0  0  0
   13.6816   37.4625   31.2268 H   0  0  0  0  0  0  0  0  0  0  0  0
    9.0031   37.3835   30.9355 H   0  0  0  0  0  0  0  0  0  0  0  0
   11.2845   36.3040   32.4929 H   0  0  0  0  0  0  0  0  0  0  0  0
   11.8847   36.9589   29.7588 H   0  0  0  0  0  0  0  0  0  0  0  0
   12.3362   38.3598   34.7440 H   0  0  0  0  0  0  0  0  0  0  0  0
   16.7575   34.1790   32.4623 H   0  0  0  0  0  0  0  0  0  0  0  0
   15.3529   35.7356   37.5141 H   0  0  0  0  0  0  0  0  0  0  0  0
   16.6363   34.5317   37.1418 H   0  0  0  0  0  0  0  0  0  0  0  0
  1  2  2  0
  1  3  1  0
  3  4  1  0
  4  5  1  0
  6  1  1  0
  7  6  1  0
  6  8  1  0
  8  9  1  0
  9 10  1  0
  9 11  2  0
 10 12  1  0
 12 13  1  0
 13 14  2  0
 15 13  1  0
 14 16  1  0
 14 17  1  0
 18 15  2  0
 16 19  1  0
 16 20  2  0
 17 21  2  0
 21 18  1  0
  4 22  2  0
  4 23  1  0
 24 23  1  0
 24 25  1  0
 25 26  1  0
 25 27  1  0
 26 28  1  0
 27 29  1  0
 27 30  1  0
 30 28  1  0
 28 31  1  0
 30 32  1  0
 33 31  1  0
 34 31  1  0
 35 33  2  0
 33 36  1  0
 37 34  2  0
 38 35  1  0
 36 39  2  0
 36 37  1  0
 40 38  2  0
 40 39  1  0
 39 41  1  0
  6 42  1  6
  7 43  1  0
  7 44  1  0
  8 45  1  0
  8 46  1  0
 12 47  1  0
 12 48  1  0
 15 49  1  0
 17 50  1  0
 18 51  1  0
 21 52  1  0
 24 53  1  0
 24 54  1  0
 25 55  1  0
 27 56  1  0
 28 57  1  0
 29 58  1  0
 30 59  1  0
 32 60  1  0
 34 61  1  0
 38 62  1  0
 41 63  1  0
 41 64  1  0
M  CHG  3   5  -1  16   1  19  -1
M  END
>  <EmbedRMS>  (695) 
0.08837816354275786

$$$$

     RDKit          3D

 64 67  0  0  0  0  0  0  0  0999 V2000
   10.2850   43.7718   33.8169 C   0  0  0  0  0  0  0  0  0  0  0  0
   11.4135   43.5796   34.3563 O   0  0  0  0  0  0  0  0  0  0  0  0
    9.3652   42.7322   33.7088 O   0  0  0  0  0  0  0  0  0  0  0  0
    9.8836   41.2326   34.2854 P   0  0  0  0  0  5  0  0  0  0  0  0
   10.3643   41.4615   35.8759 O   0  0  0  0  0  1  0  0  0  0  0  0
    9.9714   45.1062   33.2330 C   0  0  2  0  0  0  0  0  0  0  0  0
   11.0581   46.0585   33.4797 N   0  0  0  0  0  0  0  0  0  0  0  0
    8.6204   45.6614   33.7288 C   0  0  0  0  0  0  0  0  0  0  0  0
    8.6502   46.1689   35.1427 C   0  0  0  0  0  0  0  0  0  0  0  0
    9.0937   45.3413   36.1826 O   0  0  0  0  0  0  0  0  0  0  0  0
    8.2313   47.3331   35.3853 O   0  0  0  0  0  0  0  0  0  0  0  0
    9.1590   45.7631   37.5461 C   0  0  0  0  0  0  0  0  0  0  0  0
   10.3385   46.6828   37.7680 C   0  0  0  0  0  0  0  0  0  0  0  0
   11.6541   46.1966   38.0046 C   0  0  0  0  0  0  0  0  0  0  0  0
   10.1142   48.0723   37.7542 C   0  0  0  0  0  0  0  0  0  0  0  0
   11.9529   44.7886   38.0521 N   0  0  0  0  0  4  0  0  0  0  0  0
   12.6935   47.1198   38.2281 C   0  0  0  0  0  0  0  0  0  0  0  0
   11.1620   48.9680   37.9664 C   0  0  0  0  0  0  0  0  0  0  0  0
   11.3202   43.9034   37.2131 O   0  0  0  0  0  1  0  0  0  0  0  0
   12.8946   44.3720   38.7583 O   0  0  0  0  0  0  0  0  0  0  0  0
   12.4491   48.4928   38.2032 C   0  0  0  0  0  0  0  0  0  0  0  0
    8.8062   40.1901   34.2068 O   0  0  0  0  0  0  0  0  0  0  0  0
   11.2360   40.7916   33.3688 O   0  0  0  0  0  0  0  0  0  0  0  0
   10.9146   40.6900   31.9959 C   0  0  0  0  0  0  0  0  0  0  0  0
   11.5266   39.3900   31.4376 C   0  0  0  0  0  0  0  0  0  0  0  0
   12.7504   39.0919   32.0842 O   0  0  0  0  0  0  0  0  0  0  0  0
   10.6120   38.1916   31.6452 C   0  0  0  0  0  0  0  0  0  0  0  0
   12.9428   37.6855   32.0296 C   0  0  0  0  0  0  0  0  0  0  0  0
    9.6069   38.0858   30.6602 O   0  0  0  0  0  0  0  0  0  0  0  0
   11.5845   37.0187   31.6880 C   0  0  0  0  0  0  0  0  0  0  0  0
   13.4898   37.2165   33.3250 N   0  0  0  0  0  0  0  0  0  0  0  0
   11.6202   36.3064   30.4693 O   0  0  0  0  0  0  0  0  0  0  0  0
   14.4758   36.3264   33.5738 C   0  0  0  0  0  0  0  0  0  0  0  0
   13.1176   37.6308   34.5699 C   0  0  0  0  0  0  0  0  0  0  0  0
   15.2065   35.6139   32.6746 N   0  0  0  0  0  0  0  0  0  0  0  0
   14.6731   36.2268   34.9191 C   0  0  0  0  0  0  0  0  0  0  0  0
   13.8224   37.0450   35.5792 N   0  0  0  0  0  0  0  0  0  0  0  0
   16.1640   34.7596   33.1551 C   0  0  0  0  0  0  0  0  0  0  0  0
   15.6517   35.3489   35.4136 C   0  0  0  0  0  0  0  0  0  0  0  0
   16.3795   34.6310   34.5045 N   0  0  0  0  0  0  0  0  0  0  0  0
   15.9006   35.1931   36.8094 N   0  0  0  0  0  0  0  0  0  0  0  0
    9.8819   44.9615   32.1336 H   0  0  0  0  0  0  0  0  0  0  0  0
   11.2811   46.1058   34.5014 H   0  0  0  0  0  0  0  0  0  0  0  0
   11.9178   45.7363   32.9775 H   0  0  0  0  0  0  0  0  0  0  0  0
    8.3223   46.4946   33.0547 H   0  0  0  0  0  0  0  0  0  0  0  0
    7.8304   44.8848   33.6432 H   0  0  0  0  0  0  0  0  0  0  0  0
    8.2052   46.2586   37.8330 H   0  0  0  0  0  0  0  0  0  0  0  0
    9.2421   44.8726   38.2025 H   0  0  0  0  0  0  0  0  0  0  0  0
    9.1198   48.4679   37.5909 H   0  0  0  0  0  0  0  0  0  0  0  0
   13.7032   46.7743   38.4110 H   0  0  0  0  0  0  0  0  0  0  0  0
   10.9736   50.0338   37.9529 H   0  0  0  0  0  0  0  0  0  0  0  0
   13.2602   49.1898   38.3704 H   0  0  0  0  0  0  0  0  0  0  0  0
   11.3812   41.5529   31.4742 H   0  0  0  0  0  0  0  0  0  0  0  0
    9.8245   40.7191   31.7589 H   0  0  0  0  0  0  0  0  0  0  0  0
   11.7316   39.5340   30.3522 H   0  0  0  0  0  0  0  0  0  0  0  0
   10.1212   38.2681   32.6413 H   0  0  0  0  0  0  0  0  0  0  0  0
   13.6881   37.4713   31.2320 H   0  0  0  0  0  0  0  0  0  0  0  0
   10.0256   38.1751   29.7656 H   0  0  0  0  0  0  0  0  0  0  0  0
   11.2796   36.3124   32.4916 H   0  0  0  0  0  0  0  0  0  0  0  0
   11.9872   36.9101   29.7715 H   0  0  0  0  0  0  0  0  0  0  0  0
   12.3366   38.3597   34.7454 H   0  0  0  0  0  0  0  0  0  0  0  0
   16.7576   34.1795   32.4622 H   0  0  0  0  0  0  0  0  0  0  0  0
   15.3532   35.7351   37.5143 H   0  0  0  0  0  0  0  0  0  0  0  0
   16.6368   34.5316   37.1418 H   0  0  0  0  0  0  0  0  0  0  0  0
  1  2  2  0
  1  3  1  0
  3  4  1  0
  4  5  1  0
  6  1  1  0
  7  6  1  0
  6  8  1  0
  8  9  1  0
  9 10  1  0
  9 11  2  0
 10 12  1  0
 12 13  1  0
 13 14  2  0
 15 13  1  0
 14 16  1  0
 14 17  1  0
 18 15  2  0
 16 19  1  0
 16 20  2  0
 17 21  2  0
 21 18  1  0
  4 22  2  0
  4 23  1  0
 24 23  1  0
 24 25  1  0
 25 26  1  0
 25 27  1  0
 26 28  1  0
 27 29  1  0
 27 30  1  0
 30 28  1  0
 28 31  1  0
 30 32  1  0
 33 31  1  0
 34 31  1  0
 35 33  2  0
 33 36  1  0
 37 34  2  0
 38 35  1  0
 36 39  2  0
 36 37  1  0
 40 38  2  0
 40 39  1  0
 39 41  1  0
  6 42  1  6
  7 43  1  0
  7 44  1  0
  8 45  1  0
  8 46  1  0
 12 47  1  0
 12 48  1  0
 15 49  1  0
 17 50  1  0
 18 51  1  0
 21 52  1  0
 24 53  1  0
 24 54  1  0
 25 55  1  0
 27 56  1  0
 28 57  1  0
 29 58  1  0
 30 59  1  0
 32 60  1  0
 34 61  1  0
 38 62  1  0
 41 63  1  0
 41 64  1  0
M  CHG  3   5  -1  16   1  19  -1
M  END
>  <EmbedRMS>  (696) 
0.08813277924587658

$$$$

     RDKit          3D

 64 67  0  0  0  0  0  0  0  0999 V2000
   10.2863   43.7710   33.8101 C   0  0  0  0  0  0  0  0  0  0  0  0
   11.4101   43.5817   34.3619 O   0  0  0  0  0  0  0  0  0  0  0  0
    9.3669   42.7309   33.7019 O   0  0  0  0  0  0  0  0  0  0  0  0
    9.8850   41.2328   34.2832 P   0  0  0  0  0  5  0  0  0  0  0  0
   10.3662   41.4672   35.8738 O   0  0  0  0  0  1  0  0  0  0  0  0
    9.9612   45.1121   33.2467 C   0  0  2  0  0  0  0  0  0  0  0  0
   11.0651   46.0483   33.4748 N   0  0  0  0  0  0  0  0  0  0  0  0
    8.6648   45.6571   33.8687 C   0  0  0  0  0  0  0  0  0  0  0  0
    8.2712   46.9561   33.2368 C   0  0  0  0  0  0  0  0  0  0  0  0
    7.7221   46.9533   31.9519 O   0  0  0  0  0  0  0  0  0  0  0  0
    8.4675   48.0399   33.8516 O   0  0  0  0  0  0  0  0  0  0  0  0
    7.3569   48.1485   31.2666 C   0  0  0  0  0  0  0  0  0  0  0  0
    6.8453   47.8381   29.8783 C   0  0  0  0  0  0  0  0  0  0  0  0
    5.8990   48.6761   29.2309 C   0  0  0  0  0  0  0  0  0  0  0  0
    7.3392   46.7095   29.1939 C   0  0  0  0  0  0  0  0  0  0  0  0
    5.4393   49.8997   29.8312 N   0  0  0  0  0  4  0  0  0  0  0  0
    5.4118   48.3113   27.9626 C   0  0  0  0  0  0  0  0  0  0  0  0
    6.8567   46.3759   27.9277 C   0  0  0  0  0  0  0  0  0  0  0  0
    6.3271   50.7408   30.4616 O   0  0  0  0  0  1  0  0  0  0  0  0
    4.2762   50.3018   29.6211 O   0  0  0  0  0  0  0  0  0  0  0  0
    5.8862   47.1682   27.3185 C   0  0  0  0  0  0  0  0  0  0  0  0
    8.8070   40.1904   34.2076 O   0  0  0  0  0  0  0  0  0  0  0  0
   11.2367   40.7901   33.3659 O   0  0  0  0  0  0  0  0  0  0  0  0
   10.9141   40.6850   31.9930 C   0  0  0  0  0  0  0  0  0  0  0  0
   11.5165   39.3773   31.4393 C   0  0  0  0  0  0  0  0  0  0  0  0
   12.7471   39.0855   32.0739 O   0  0  0  0  0  0  0  0  0  0  0  0
   10.6047   38.1867   31.6669 C   0  0  0  0  0  0  0  0  0  0  0  0
   12.9345   37.6791   32.0282 C   0  0  0  0  0  0  0  0  0  0  0  0
    9.6378   38.0917   30.6488 O   0  0  0  0  0  0  0  0  0  0  0  0
   11.5761   37.0129   31.7056 C   0  0  0  0  0  0  0  0  0  0  0  0
   13.4909   37.2177   33.3233 N   0  0  0  0  0  0  0  0  0  0  0  0
   11.6234   36.3371   30.4684 O   0  0  0  0  0  0  0  0  0  0  0  0
   14.4765   36.3272   33.5727 C   0  0  0  0  0  0  0  0  0  0  0  0
   13.1182   37.6316   34.5685 C   0  0  0  0  0  0  0  0  0  0  0  0
   15.2066   35.6137   32.6739 N   0  0  0  0  0  0  0  0  0  0  0  0
   14.6736   36.2276   34.9182 C   0  0  0  0  0  0  0  0  0  0  0  0
   13.8227   37.0457   35.5781 N   0  0  0  0  0  0  0  0  0  0  0  0
   16.1638   34.7593   33.1547 C   0  0  0  0  0  0  0  0  0  0  0  0
   15.6517   35.3492   35.4131 C   0  0  0  0  0  0  0  0  0  0  0  0
   16.3792   34.6309   34.5043 N   0  0  0  0  0  0  0  0  0  0  0  0
   15.9002   35.1934   36.8090 N   0  0  0  0  0  0  0  0  0  0  0  0
    9.8122   44.9935   32.1502 H   0  0  0  0  0  0  0  0  0  0  0  0
   11.9220   45.7028   32.9832 H   0  0  0  0  0  0  0  0  0  0  0  0
   11.2743   46.1186   34.4983 H   0  0  0  0  0  0  0  0  0  0  0  0
    8.7941   45.7930   34.9655 H   0  0  0  0  0  0  0  0  0  0  0  0
    7.8366   44.9324   33.7117 H   0  0  0  0  0  0  0  0  0  0  0  0
    8.2419   48.8153   31.1817 H   0  0  0  0  0  0  0  0  0  0  0  0
    6.5689   48.6566   31.8624 H   0  0  0  0  0  0  0  0  0  0  0  0
    8.0938   46.0755   29.6425 H   0  0  0  0  0  0  0  0  0  0  0  0
    4.6813   48.9310   27.4579 H   0  0  0  0  0  0  0  0  0  0  0  0
    7.2351   45.4987   27.4187 H   0  0  0  0  0  0  0  0  0  0  0  0
    5.5118   46.9054   26.3375 H   0  0  0  0  0  0  0  0  0  0  0  0
   11.3872   41.5416   31.4671 H   0  0  0  0  0  0  0  0  0  0  0  0
    9.8241   40.7213   31.7563 H   0  0  0  0  0  0  0  0  0  0  0  0
   11.6986   39.5013   30.3467 H   0  0  0  0  0  0  0  0  0  0  0  0
   10.1095   38.2771   32.6628 H   0  0  0  0  0  0  0  0  0  0  0  0
   13.6672   37.4545   31.2213 H   0  0  0  0  0  0  0  0  0  0  0  0
    8.9779   37.4157   30.9533 H   0  0  0  0  0  0  0  0  0  0  0  0
   11.2861   36.3041   32.5177 H   0  0  0  0  0  0  0  0  0  0  0  0
   10.8690   35.6918   30.4657 H   0  0  0  0  0  0  0  0  0  0  0  0
   12.3355   38.3587   34.7440 H   0  0  0  0  0  0  0  0  0  0  0  0
   16.7572   34.1786   32.4621 H   0  0  0  0  0  0  0  0  0  0  0  0
   15.3530   35.7358   37.5138 H   0  0  0  0  0  0  0  0  0  0  0  0
   16.6361   34.5315   37.1415 H   0  0  0  0  0  0  0  0  0  0  0  0
  1  2  2  0
  1  3  1  0
  3  4  1  0
  4  5  1  0
  6  1  1  0
  7  6  1  0
  6  8  1  0
  8  9  1  0
  9 10  1  0
  9 11  2  0
 10 12  1  0
 12 13  1  0
 13 14  2  0
 15 13  1  0
 14 16  1  0
 14 17  1  0
 18 15  2  0
 16 19  1  0
 16 20  2  0
 17 21  2  0
 21 18  1  0
  4 22  2  0
  4 23  1  0
 24 23  1  0
 24 25  1  0
 25 26  1  0
 25 27  1  0
 26 28  1  0
 27 29  1  0
 27 30  1  0
 30 28  1  0
 28 31  1  0
 30 32  1  0
 33 31  1  0
 34 31  1  0
 35 33  2  0
 33 36  1  0
 37 34  2  0
 38 35  1  0
 36 39  2  0
 36 37  1  0
 40 38  2  0
 40 39  1  0
 39 41  1  0
  6 42  1  6
  7 43  1  0
  7 44  1  0
  8 45  1  0
  8 46  1  0
 12 47  1  0
 12 48  1  0
 15 49  1  0
 17 50  1  0
 18 51  1  0
 21 52  1  0
 24 53  1  0
 24 54  1  0
 25 55  1  0
 27 56  1  0
 28 57  1  0
 29 58  1  0
 30 59  1  0
 32 60  1  0
 34 61  1  0
 38 62  1  0
 41 63  1  0
 41 64  1  0
M  CHG  3   5  -1  16   1  19  -1
M  END
>  <EmbedRMS>  (697) 
0.08952146718461798

$$$$

     RDKit          3D

 64 67  0  0  0  0  0  0  0  0999 V2000
   10.2860   43.7712   33.8101 C   0  0  0  0  0  0  0  0  0  0  0  0
   11.4099   43.5819   34.3616 O   0  0  0  0  0  0  0  0  0  0  0  0
    9.3669   42.7308   33.7020 O   0  0  0  0  0  0  0  0  0  0  0  0
    9.8847   41.2330   34.2845 P   0  0  0  0  0  5  0  0  0  0  0  0
   10.3648   41.4678   35.8752 O   0  0  0  0  0  1  0  0  0  0  0  0
    9.9604   45.1126   33.2473 C   0  0  2  0  0  0  0  0  0  0  0  0
   11.0659   46.0473   33.4747 N   0  0  0  0  0  0  0  0  0  0  0  0
    8.6649   45.6585   33.8716 C   0  0  0  0  0  0  0  0  0  0  0  0
    8.2527   46.9434   33.2224 C   0  0  0  0  0  0  0  0  0  0  0  0
    8.7953   48.1504   33.6805 O   0  0  0  0  0  0  0  0  0  0  0  0
    7.4583   46.9229   32.2427 O   0  0  0  0  0  0  0  0  0  0  0  0
    8.4688   49.4263   33.1267 C   0  0  0  0  0  0  0  0  0  0  0  0
    9.4442   49.8631   32.0501 C   0  0  0  0  0  0  0  0  0  0  0  0
    9.6030   51.2386   31.7275 C   0  0  0  0  0  0  0  0  0  0  0  0
   10.2041   48.9082   31.3427 C   0  0  0  0  0  0  0  0  0  0  0  0
    8.8059   52.2593   32.3553 N   0  0  0  0  0  4  0  0  0  0  0  0
   10.5594   51.6162   30.7673 C   0  0  0  0  0  0  0  0  0  0  0  0
   11.1348   49.3042   30.3816 C   0  0  0  0  0  0  0  0  0  0  0  0
    7.4603   52.0640   32.5650 O   0  0  0  0  0  1  0  0  0  0  0  0
    9.2848   53.3956   32.5509 O   0  0  0  0  0  0  0  0  0  0  0  0
   11.3191   50.6554   30.1012 C   0  0  0  0  0  0  0  0  0  0  0  0
    8.8074   40.1902   34.2075 O   0  0  0  0  0  0  0  0  0  0  0  0
   11.2377   40.7903   33.3696 O   0  0  0  0  0  0  0  0  0  0  0  0
   10.9187   40.6905   31.9961 C   0  0  0  0  0  0  0  0  0  0  0  0
   11.5175   39.3824   31.4411 C   0  0  0  0  0  0  0  0  0  0  0  0
   12.7494   39.0893   32.0756 O   0  0  0  0  0  0  0  0  0  0  0  0
   10.6036   38.1899   31.6659 C   0  0  0  0  0  0  0  0  0  0  0  0
   12.9401   37.6834   32.0276 C   0  0  0  0  0  0  0  0  0  0  0  0
    9.6376   38.0785   30.6474 O   0  0  0  0  0  0  0  0  0  0  0  0
   11.5803   37.0203   31.6937 C   0  0  0  0  0  0  0  0  0  0  0  0
   13.4902   37.2177   33.3237 N   0  0  0  0  0  0  0  0  0  0  0  0
   11.6118   36.3193   30.4680 O   0  0  0  0  0  0  0  0  0  0  0  0
   14.4759   36.3271   33.5731 C   0  0  0  0  0  0  0  0  0  0  0  0
   13.1176   37.6317   34.5688 C   0  0  0  0  0  0  0  0  0  0  0  0
   15.2064   35.6141   32.6742 N   0  0  0  0  0  0  0  0  0  0  0  0
   14.6729   36.2274   34.9184 C   0  0  0  0  0  0  0  0  0  0  0  0
   13.8221   37.0457   35.5783 N   0  0  0  0  0  0  0  0  0  0  0  0
   16.1637   34.7597   33.1549 C   0  0  0  0  0  0  0  0  0  0  0  0
   15.6514   35.3493   35.4133 C   0  0  0  0  0  0  0  0  0  0  0  0
   16.3791   34.6312   34.5044 N   0  0  0  0  0  0  0  0  0  0  0  0
   15.9001   35.1935   36.8091 N   0  0  0  0  0  0  0  0  0  0  0  0
    9.8094   44.9949   32.1511 H   0  0  0  0  0  0  0  0  0  0  0  0
   11.9209   45.7035   32.9789 H   0  0  0  0  0  0  0  0  0  0  0  0
   11.2782   46.1165   34.4975 H   0  0  0  0  0  0  0  0  0  0  0  0
    7.8433   44.9182   33.7510 H   0  0  0  0  0  0  0  0  0  0  0  0
    8.8083   45.8287   34.9610 H   0  0  0  0  0  0  0  0  0  0  0  0
    7.4331   49.4265   32.7237 H   0  0  0  0  0  0  0  0  0  0  0  0
    8.5063   50.1562   33.9623 H   0  0  0  0  0  0  0  0  0  0  0  0
   10.0943   47.8511   31.5312 H   0  0  0  0  0  0  0  0  0  0  0  0
   10.7005   52.6599   30.5162 H   0  0  0  0  0  0  0  0  0  0  0  0
   11.7176   48.5596   29.8547 H   0  0  0  0  0  0  0  0  0  0  0  0
   12.0441   50.9591   29.3570 H   0  0  0  0  0  0  0  0  0  0  0  0
   11.3998   41.5454   31.4747 H   0  0  0  0  0  0  0  0  0  0  0  0
    9.8309   40.7398   31.7558 H   0  0  0  0  0  0  0  0  0  0  0  0
   11.6989   39.5091   30.3489 H   0  0  0  0  0  0  0  0  0  0  0  0
   10.1130   38.2588   32.6663 H   0  0  0  0  0  0  0  0  0  0  0  0
   13.6800   37.4628   31.2265 H   0  0  0  0  0  0  0  0  0  0  0  0
    8.8952   38.6908   30.8891 H   0  0  0  0  0  0  0  0  0  0  0  0
   11.2830   36.3060   32.4929 H   0  0  0  0  0  0  0  0  0  0  0  0
   11.8859   36.9589   29.7593 H   0  0  0  0  0  0  0  0  0  0  0  0
   12.3360   38.3600   34.7441 H   0  0  0  0  0  0  0  0  0  0  0  0
   16.7572   34.1793   32.4621 H   0  0  0  0  0  0  0  0  0  0  0  0
   15.3528   35.7356   37.5140 H   0  0  0  0  0  0  0  0  0  0  0  0
   16.6362   34.5318   37.1416 H   0  0  0  0  0  0  0  0  0  0  0  0
  1  2  2  0
  1  3  1  0
  3  4  1  0
  4  5  1  0
  6  1  1  0
  7  6  1  0
  6  8  1  0
  8  9  1  0
  9 10  1  0
  9 11  2  0
 10 12  1  0
 12 13  1  0
 13 14  2  0
 15 13  1  0
 14 16  1  0
 14 17  1  0
 18 15  2  0
 16 19  1  0
 16 20  2  0
 17 21  2  0
 21 18  1  0
  4 22  2  0
  4 23  1  0
 24 23  1  0
 24 25  1  0
 25 26  1  0
 25 27  1  0
 26 28  1  0
 27 29  1  0
 27 30  1  0
 30 28  1  0
 28 31  1  0
 30 32  1  0
 33 31  1  0
 34 31  1  0
 35 33  2  0
 33 36  1  0
 37 34  2  0
 38 35  1  0
 36 39  2  0
 36 37  1  0
 40 38  2  0
 40 39  1  0
 39 41  1  0
  6 42  1  6
  7 43  1  0
  7 44  1  0
  8 45  1  0
  8 46  1  0
 12 47  1  0
 12 48  1  0
 15 49  1  0
 17 50  1  0
 18 51  1  0
 21 52  1  0
 24 53  1  0
 24 54  1  0
 25 55  1  0
 27 56  1  0
 28 57  1  0
 29 58  1  0
 30 59  1  0
 32 60  1  0
 34 61  1  0
 38 62  1  0
 41 63  1  0
 41 64  1  0
M  CHG  3   5  -1  16   1  19  -1
M  END
>  <EmbedRMS>  (698) 
0.08882186741984076

$$$$

     RDKit          3D

 64 67  0  0  0  0  0  0  0  0999 V2000
   10.2873   43.7703   33.8002 C   0  0  0  0  0  0  0  0  0  0  0  0
   11.4099   43.5854   34.3555 O   0  0  0  0  0  0  0  0  0  0  0  0
    9.3669   42.7308   33.6982 O   0  0  0  0  0  0  0  0  0  0  0  0
    9.8848   41.2347   34.2851 P   0  0  0  0  0  5  0  0  0  0  0  0
   10.3652   41.4720   35.8753 O   0  0  0  0  0  1  0  0  0  0  0  0
    9.9527   45.1161   33.2548 C   0  0  2  0  0  0  0  0  0  0  0  0
   11.0701   46.0337   33.4818 N   0  0  0  0  0  0  0  0  0  0  0  0
    8.6593   45.6659   33.8924 C   0  0  0  0  0  0  0  0  0  0  0  0
    8.7260   45.6920   35.3913 C   0  0  0  0  0  0  0  0  0  0  0  0
    9.5568   46.6167   36.0344 O   0  0  0  0  0  0  0  0  0  0  0  0
    8.0589   44.8547   36.0588 O   0  0  0  0  0  0  0  0  0  0  0  0
    9.7883   46.5987   37.4416 C   0  0  0  0  0  0  0  0  0  0  0  0
   10.6248   45.3983   37.8246 C   0  0  0  0  0  0  0  0  0  0  0  0
   11.9204   45.1646   37.2832 C   0  0  0  0  0  0  0  0  0  0  0  0
   10.0617   44.4440   38.6928 C   0  0  0  0  0  0  0  0  0  0  0  0
   12.5607   46.0978   36.3896 N   0  0  0  0  0  4  0  0  0  0  0  0
   12.5918   43.9717   37.6150 C   0  0  0  0  0  0  0  0  0  0  0  0
   10.7525   43.2764   39.0160 C   0  0  0  0  0  0  0  0  0  0  0  0
   12.3904   47.4538   36.5392 O   0  0  0  0  0  1  0  0  0  0  0  0
   13.4117   45.6940   35.5700 O   0  0  0  0  0  0  0  0  0  0  0  0
   12.0131   43.0389   38.4752 C   0  0  0  0  0  0  0  0  0  0  0  0
    8.8076   40.1915   34.2098 O   0  0  0  0  0  0  0  0  0  0  0  0
   11.2366   40.7900   33.3698 O   0  0  0  0  0  0  0  0  0  0  0  0
   10.9155   40.6898   31.9966 C   0  0  0  0  0  0  0  0  0  0  0  0
   11.5269   39.3900   31.4377 C   0  0  0  0  0  0  0  0  0  0  0  0
   12.7508   39.0917   32.0840 O   0  0  0  0  0  0  0  0  0  0  0  0
   10.6122   38.1916   31.6453 C   0  0  0  0  0  0  0  0  0  0  0  0
   12.9429   37.6854   32.0296 C   0  0  0  0  0  0  0  0  0  0  0  0
    9.6070   38.0859   30.6603 O   0  0  0  0  0  0  0  0  0  0  0  0
   11.5845   37.0187   31.6880 C   0  0  0  0  0  0  0  0  0  0  0  0
   13.4899   37.2164   33.3250 N   0  0  0  0  0  0  0  0  0  0  0  0
   11.6201   36.3063   30.4693 O   0  0  0  0  0  0  0  0  0  0  0  0
   14.4758   36.3264   33.5739 C   0  0  0  0  0  0  0  0  0  0  0  0
   13.1176   37.6309   34.5700 C   0  0  0  0  0  0  0  0  0  0  0  0
   15.2065   35.6139   32.6746 N   0  0  0  0  0  0  0  0  0  0  0  0
   14.6731   36.2268   34.9191 C   0  0  0  0  0  0  0  0  0  0  0  0
   13.8225   37.0451   35.5793 N   0  0  0  0  0  0  0  0  0  0  0  0
   16.1640   34.7596   33.1551 C   0  0  0  0  0  0  0  0  0  0  0  0
   15.6517   35.3489   35.4136 C   0  0  0  0  0  0  0  0  0  0  0  0
   16.3795   34.6310   34.5046 N   0  0  0  0  0  0  0  0  0  0  0  0
   15.9006   35.1931   36.8094 N   0  0  0  0  0  0  0  0  0  0  0  0
    9.7843   45.0135   32.1591 H   0  0  0  0  0  0  0  0  0  0  0  0
   10.8130   46.9725   33.0987 H   0  0  0  0  0  0  0  0  0  0  0  0
   11.8843   45.7119   32.9082 H   0  0  0  0  0  0  0  0  0  0  0  0
    8.4656   46.6956   33.5226 H   0  0  0  0  0  0  0  0  0  0  0  0
    7.7978   45.0403   33.5700 H   0  0  0  0  0  0  0  0  0  0  0  0
   10.3010   47.5315   37.7490 H   0  0  0  0  0  0  0  0  0  0  0  0
    8.8108   46.6042   37.9725 H   0  0  0  0  0  0  0  0  0  0  0  0
    9.0743   44.5946   39.1115 H   0  0  0  0  0  0  0  0  0  0  0  0
   13.5761   43.7663   37.2135 H   0  0  0  0  0  0  0  0  0  0  0  0
   10.3044   42.5494   39.6810 H   0  0  0  0  0  0  0  0  0  0  0  0
   12.5444   42.1290   38.7229 H   0  0  0  0  0  0  0  0  0  0  0  0
    9.8254   40.7192   31.7593 H   0  0  0  0  0  0  0  0  0  0  0  0
   11.3827   41.5528   31.4757 H   0  0  0  0  0  0  0  0  0  0  0  0
   11.7317   39.5342   30.3523 H   0  0  0  0  0  0  0  0  0  0  0  0
   10.1214   38.2682   32.6413 H   0  0  0  0  0  0  0  0  0  0  0  0
   13.6882   37.4709   31.2320 H   0  0  0  0  0  0  0  0  0  0  0  0
   10.0258   38.1754   29.7657 H   0  0  0  0  0  0  0  0  0  0  0  0
   11.2796   36.3124   32.4916 H   0  0  0  0  0  0  0  0  0  0  0  0
   11.9872   36.9100   29.7715 H   0  0  0  0  0  0  0  0  0  0  0  0
   12.3367   38.3599   34.7454 H   0  0  0  0  0  0  0  0  0  0  0  0
   16.7576   34.1795   32.4622 H   0  0  0  0  0  0  0  0  0  0  0  0
   15.3532   35.7352   37.5144 H   0  0  0  0  0  0  0  0  0  0  0  0
   16.6368   34.5316   37.1418 H   0  0  0  0  0  0  0  0  0  0  0  0
  1  2  2  0
  1  3  1  0
  3  4  1  0
  4  5  1  0
  6  1  1  0
  7  6  1  0
  6  8  1  0
  8  9  1  0
  9 10  1  0
  9 11  2  0
 10 12  1  0
 12 13  1  0
 13 14  2  0
 15 13  1  0
 14 16  1  0
 14 17  1  0
 18 15  2  0
 16 19  1  0
 16 20  2  0
 17 21  2  0
 21 18  1  0
  4 22  2  0
  4 23  1  0
 24 23  1  0
 24 25  1  0
 25 26  1  0
 25 27  1  0
 26 28  1  0
 27 29  1  0
 27 30  1  0
 30 28  1  0
 28 31  1  0
 30 32  1  0
 33 31  1  0
 34 31  1  0
 35 33  2  0
 33 36  1  0
 37 34  2  0
 38 35  1  0
 36 39  2  0
 36 37  1  0
 40 38  2  0
 40 39  1  0
 39 41  1  0
  6 42  1  6
  7 43  1  0
  7 44  1  0
  8 45  1  0
  8 46  1  0
 12 47  1  0
 12 48  1  0
 15 49  1  0
 17 50  1  0
 18 51  1  0
 21 52  1  0
 24 53  1  0
 24 54  1  0
 25 55  1  0
 27 56  1  0
 28 57  1  0
 29 58  1  0
 30 59  1  0
 32 60  1  0
 34 61  1  0
 38 62  1  0
 41 63  1  0
 41 64  1  0
M  CHG  3   5  -1  16   1  19  -1
M  END
>  <EmbedRMS>  (699) 
0.08684829088472312

$$$$

     RDKit          3D

 64 67  0  0  0  0  0  0  0  0999 V2000
   10.2852   43.7728   33.8065 C   0  0  0  0  0  0  0  0  0  0  0  0
   11.4115   43.5867   34.3544 O   0  0  0  0  0  0  0  0  0  0  0  0
    9.3673   42.7310   33.6995 O   0  0  0  0  0  0  0  0  0  0  0  0
    9.8850   41.2338   34.2837 P   0  0  0  0  0  5  0  0  0  0  0  0
   10.3672   41.4694   35.8736 O   0  0  0  0  0  1  0  0  0  0  0  0
    9.9518   45.1159   33.2576 C   0  0  2  0  0  0  0  0  0  0  0  0
   11.0728   46.0337   33.4729 N   0  0  0  0  0  0  0  0  0  0  0  0
    8.6340   45.6692   33.8504 C   0  0  0  0  0  0  0  0  0  0  0  0
    8.7010   45.8793   35.3349 C   0  0  0  0  0  0  0  0  0  0  0  0
    8.8893   47.1718   35.8396 O   0  0  0  0  0  0  0  0  0  0  0  0
    8.6095   44.8906   36.1114 O   0  0  0  0  0  0  0  0  0  0  0  0
    9.1100   47.4531   37.2213 C   0  0  0  0  0  0  0  0  0  0  0  0
   10.5157   47.0641   37.6232 C   0  0  0  0  0  0  0  0  0  0  0  0
   10.7999   46.1990   38.7137 C   0  0  0  0  0  0  0  0  0  0  0  0
   11.5848   47.6553   36.9248 C   0  0  0  0  0  0  0  0  0  0  0  0
    9.7615   45.5833   39.4915 N   0  0  0  0  0  4  0  0  0  0  0  0
   12.1384   45.9593   39.0697 C   0  0  0  0  0  0  0  0  0  0  0  0
   12.9084   47.3887   37.2824 C   0  0  0  0  0  0  0  0  0  0  0  0
    9.8984   45.4965   40.8579 O   0  0  0  0  0  1  0  0  0  0  0  0
    8.8878   44.8907   38.9317 O   0  0  0  0  0  0  0  0  0  0  0  0
   13.1845   46.5429   38.3548 C   0  0  0  0  0  0  0  0  0  0  0  0
    8.8075   40.1907   34.2082 O   0  0  0  0  0  0  0  0  0  0  0  0
   11.2364   40.7891   33.3685 O   0  0  0  0  0  0  0  0  0  0  0  0
   10.9146   40.6885   31.9958 C   0  0  0  0  0  0  0  0  0  0  0  0
   11.5257   39.3884   31.4375 C   0  0  0  0  0  0  0  0  0  0  0  0
   12.7478   39.0901   32.0842 O   0  0  0  0  0  0  0  0  0  0  0  0
   10.6114   38.1898   31.6451 C   0  0  0  0  0  0  0  0  0  0  0  0
   12.9361   37.6836   32.0309 C   0  0  0  0  0  0  0  0  0  0  0  0
    9.6157   38.0848   30.6513 O   0  0  0  0  0  0  0  0  0  0  0  0
   11.5784   37.0146   31.7013 C   0  0  0  0  0  0  0  0  0  0  0  0
   13.4897   37.2161   33.3247 N   0  0  0  0  0  0  0  0  0  0  0  0
   11.6213   36.3255   30.4729 O   0  0  0  0  0  0  0  0  0  0  0  0
   14.4753   36.3250   33.5731 C   0  0  0  0  0  0  0  0  0  0  0  0
   13.1175   37.6292   34.5706 C   0  0  0  0  0  0  0  0  0  0  0  0
   15.2078   35.6140   32.6740 N   0  0  0  0  0  0  0  0  0  0  0  0
   14.6724   36.2249   34.9185 C   0  0  0  0  0  0  0  0  0  0  0  0
   13.8221   37.0426   35.5793 N   0  0  0  0  0  0  0  0  0  0  0  0
   16.1669   34.7612   33.1551 C   0  0  0  0  0  0  0  0  0  0  0  0
   15.6521   35.3487   35.4132 C   0  0  0  0  0  0  0  0  0  0  0  0
   16.3817   34.6327   34.5045 N   0  0  0  0  0  0  0  0  0  0  0  0
   15.9010   35.1931   36.8088 N   0  0  0  0  0  0  0  0  0  0  0  0
    9.8104   44.9960   32.1610 H   0  0  0  0  0  0  0  0  0  0  0  0
   10.8430   46.9534   33.0306 H   0  0  0  0  0  0  0  0  0  0  0  0
   11.2078   46.2041   34.4954 H   0  0  0  0  0  0  0  0  0  0  0  0
    7.7981   44.9733   33.6187 H   0  0  0  0  0  0  0  0  0  0  0  0
    8.3903   46.6367   33.3607 H   0  0  0  0  0  0  0  0  0  0  0  0
    8.3224   46.9739   37.8342 H   0  0  0  0  0  0  0  0  0  0  0  0
    8.9981   48.5475   37.3754 H   0  0  0  0  0  0  0  0  0  0  0  0
   11.3909   48.3282   36.0969 H   0  0  0  0  0  0  0  0  0  0  0  0
   12.3721   45.3087   39.9027 H   0  0  0  0  0  0  0  0  0  0  0  0
   13.7210   47.8452   36.7303 H   0  0  0  0  0  0  0  0  0  0  0  0
   14.2123   46.3398   38.6335 H   0  0  0  0  0  0  0  0  0  0  0  0
    9.8245   40.7164   31.7583 H   0  0  0  0  0  0  0  0  0  0  0  0
   11.3819   41.5517   31.4752 H   0  0  0  0  0  0  0  0  0  0  0  0
   11.7303   39.5343   30.3524 H   0  0  0  0  0  0  0  0  0  0  0  0
   10.1110   38.2686   32.6363 H   0  0  0  0  0  0  0  0  0  0  0  0
   13.6699   37.4664   31.2236 H   0  0  0  0  0  0  0  0  0  0  0  0
   10.0560   38.1114   29.7623 H   0  0  0  0  0  0  0  0  0  0  0  0
   11.2633   36.3153   32.5112 H   0  0  0  0  0  0  0  0  0  0  0  0
   12.1567   35.5051   30.6329 H   0  0  0  0  0  0  0  0  0  0  0  0
   12.3366   38.3575   34.7486 H   0  0  0  0  0  0  0  0  0  0  0  0
   16.7645   34.1834   32.4635 H   0  0  0  0  0  0  0  0  0  0  0  0
   15.3533   35.7341   37.5145 H   0  0  0  0  0  0  0  0  0  0  0  0
   16.6362   34.5297   37.1397 H   0  0  0  0  0  0  0  0  0  0  0  0
  1  2  2  0
  1  3  1  0
  3  4  1  0
  4  5  1  0
  6  1  1  0
  7  6  1  0
  6  8  1  0
  8  9  1  0
  9 10  1  0
  9 11  2  0
 10 12  1  0
 12 13  1  0
 13 14  2  0
 15 13  1  0
 14 16  1  0
 14 17  1  0
 18 15  2  0
 16 19  1  0
 16 20  2  0
 17 21  2  0
 21 18  1  0
  4 22  2  0
  4 23  1  0
 24 23  1  0
 24 25  1  0
 25 26  1  0
 25 27  1  0
 26 28  1  0
 27 29  1  0
 27 30  1  0
 30 28  1  0
 28 31  1  0
 30 32  1  0
 33 31  1  0
 34 31  1  0
 35 33  2  0
 33 36  1  0
 37 34  2  0
 38 35  1  0
 36 39  2  0
 36 37  1  0
 40 38  2  0
 40 39  1  0
 39 41  1  0
  6 42  1  6
  7 43  1  0
  7 44  1  0
  8 45  1  0
  8 46  1  0
 12 47  1  0
 12 48  1  0
 15 49  1  0
 17 50  1  0
 18 51  1  0
 21 52  1  0
 24 53  1  0
 24 54  1  0
 25 55  1  0
 27 56  1  0
 28 57  1  0
 29 58  1  0
 30 59  1  0
 32 60  1  0
 34 61  1  0
 38 62  1  0
 41 63  1  0
 41 64  1  0
M  CHG  3   5  -1  16   1  19  -1
M  END
>  <EmbedRMS>  (700) 
0.08802120162355452

$$$$

     RDKit          3D

 64 67  0  0  0  0  0  0  0  0999 V2000
   10.2873   43.7711   33.8019 C   0  0  0  0  0  0  0  0  0  0  0  0
   11.4095   43.5877   34.3590 O   0  0  0  0  0  0  0  0  0  0  0  0
    9.3678   42.7307   33.6982 O   0  0  0  0  0  0  0  0  0  0  0  0
    9.8849   41.2345   34.2847 P   0  0  0  0  0  5  0  0  0  0  0  0
   10.3649   41.4714   35.8752 O   0  0  0  0  0  1  0  0  0  0  0  0
    9.9518   45.1157   33.2559 C   0  0  2  0  0  0  0  0  0  0  0  0
   11.0707   46.0335   33.4780 N   0  0  0  0  0  0  0  0  0  0  0  0
    8.6626   45.6648   33.9001 C   0  0  0  0  0  0  0  0  0  0  0  0
    8.7962   45.8331   35.3846 C   0  0  0  0  0  0  0  0  0  0  0  0
    8.5637   44.7352   36.2225 O   0  0  0  0  0  0  0  0  0  0  0  0
    9.1455   46.9475   35.8611 O   0  0  0  0  0  0  0  0  0  0  0  0
    8.7250   44.7770   37.6408 C   0  0  0  0  0  0  0  0  0  0  0  0
    7.4622   45.1984   38.3701 C   0  0  0  0  0  0  0  0  0  0  0  0
    7.3499   45.0356   39.7800 C   0  0  0  0  0  0  0  0  0  0  0  0
    6.3665   45.7348   37.6597 C   0  0  0  0  0  0  0  0  0  0  0  0
    8.4263   44.5062   40.5771 N   0  0  0  0  0  4  0  0  0  0  0  0
    6.1462   45.3810   40.4196 C   0  0  0  0  0  0  0  0  0  0  0  0
    5.1883   46.0852   38.3197 C   0  0  0  0  0  0  0  0  0  0  0  0
    8.1468   43.7988   41.7239 O   0  0  0  0  0  1  0  0  0  0  0  0
    9.6108   44.8205   40.3420 O   0  0  0  0  0  0  0  0  0  0  0  0
    5.0767   45.9050   39.6952 C   0  0  0  0  0  0  0  0  0  0  0  0
    8.8074   40.1916   34.2092 O   0  0  0  0  0  0  0  0  0  0  0  0
   11.2367   40.7898   33.3695 O   0  0  0  0  0  0  0  0  0  0  0  0
   10.9156   40.6897   31.9964 C   0  0  0  0  0  0  0  0  0  0  0  0
   11.5270   39.3898   31.4375 C   0  0  0  0  0  0  0  0  0  0  0  0
   12.7508   39.0916   32.0838 O   0  0  0  0  0  0  0  0  0  0  0  0
   10.6122   38.1916   31.6452 C   0  0  0  0  0  0  0  0  0  0  0  0
   12.9429   37.6852   32.0295 C   0  0  0  0  0  0  0  0  0  0  0  0
    9.6070   38.0858   30.6603 O   0  0  0  0  0  0  0  0  0  0  0  0
   11.5845   37.0186   31.6879 C   0  0  0  0  0  0  0  0  0  0  0  0
   13.4899   37.2163   33.3250 N   0  0  0  0  0  0  0  0  0  0  0  0
   11.6201   36.3063   30.4693 O   0  0  0  0  0  0  0  0  0  0  0  0
   14.4759   36.3263   33.5739 C   0  0  0  0  0  0  0  0  0  0  0  0
   13.1175   37.6307   34.5699 C   0  0  0  0  0  0  0  0  0  0  0  0
   15.2065   35.6139   32.6746 N   0  0  0  0  0  0  0  0  0  0  0  0
   14.6731   36.2267   34.9191 C   0  0  0  0  0  0  0  0  0  0  0  0
   13.8224   37.0450   35.5792 N   0  0  0  0  0  0  0  0  0  0  0  0
   16.1640   34.7596   33.1551 C   0  0  0  0  0  0  0  0  0  0  0  0
   15.6517   35.3489   35.4136 C   0  0  0  0  0  0  0  0  0  0  0  0
   16.3795   34.6310   34.5046 N   0  0  0  0  0  0  0  0  0  0  0  0
   15.9006   35.1931   36.8094 N   0  0  0  0  0  0  0  0  0  0  0  0
    9.7772   45.0101   32.1614 H   0  0  0  0  0  0  0  0  0  0  0  0
   10.8083   46.9727   33.0990 H   0  0  0  0  0  0  0  0  0  0  0  0
   11.8803   45.7139   32.8966 H   0  0  0  0  0  0  0  0  0  0  0  0
    7.8155   44.9765   33.6894 H   0  0  0  0  0  0  0  0  0  0  0  0
    8.4049   46.6430   33.4385 H   0  0  0  0  0  0  0  0  0  0  0  0
    9.5642   45.4551   37.9062 H   0  0  0  0  0  0  0  0  0  0  0  0
    8.9973   43.7526   37.9720 H   0  0  0  0  0  0  0  0  0  0  0  0
    6.4025   45.8757   36.5892 H   0  0  0  0  0  0  0  0  0  0  0  0
    6.0406   45.2597   41.4902 H   0  0  0  0  0  0  0  0  0  0  0  0
    4.3558   46.4919   37.7600 H   0  0  0  0  0  0  0  0  0  0  0  0
    4.1594   46.1743   40.2029 H   0  0  0  0  0  0  0  0  0  0  0  0
    9.8255   40.7191   31.7590 H   0  0  0  0  0  0  0  0  0  0  0  0
   11.3828   41.5526   31.4754 H   0  0  0  0  0  0  0  0  0  0  0  0
   11.7317   39.5340   30.3521 H   0  0  0  0  0  0  0  0  0  0  0  0
   10.1214   38.2682   32.6413 H   0  0  0  0  0  0  0  0  0  0  0  0
   13.6882   37.4707   31.2319 H   0  0  0  0  0  0  0  0  0  0  0  0
   10.0257   38.1752   29.7656 H   0  0  0  0  0  0  0  0  0  0  0  0
   11.2796   36.3123   32.4915 H   0  0  0  0  0  0  0  0  0  0  0  0
   11.9872   36.9099   29.7714 H   0  0  0  0  0  0  0  0  0  0  0  0
   12.3365   38.3595   34.7453 H   0  0  0  0  0  0  0  0  0  0  0  0
   16.7577   34.1794   32.4622 H   0  0  0  0  0  0  0  0  0  0  0  0
   16.6368   34.5316   37.1418 H   0  0  0  0  0  0  0  0  0  0  0  0
   15.3532   35.7351   37.5143 H   0  0  0  0  0  0  0  0  0  0  0  0
  1  2  2  0
  1  3  1  0
  3  4  1  0
  4  5  1  0
  6  1  1  0
  7  6  1  0
  6  8  1  0
  8  9  1  0
  9 10  1  0
  9 11  2  0
 10 12  1  0
 12 13  1  0
 13 14  2  0
 15 13  1  0
 14 16  1  0
 14 17  1  0
 18 15  2  0
 16 19  1  0
 16 20  2  0
 17 21  2  0
 21 18  1  0
  4 22  2  0
  4 23  1  0
 24 23  1  0
 24 25  1  0
 25 26  1  0
 25 27  1  0
 26 28  1  0
 27 29  1  0
 27 30  1  0
 30 28  1  0
 28 31  1  0
 30 32  1  0
 33 31  1  0
 34 31  1  0
 35 33  2  0
 33 36  1  0
 37 34  2  0
 38 35  1  0
 36 39  2  0
 36 37  1  0
 40 38  2  0
 40 39  1  0
 39 41  1  0
  6 42  1  6
  7 43  1  0
  7 44  1  0
  8 45  1  0
  8 46  1  0
 12 47  1  0
 12 48  1  0
 15 49  1  0
 17 50  1  0
 18 51  1  0
 21 52  1  0
 24 53  1  0
 24 54  1  0
 25 55  1  0
 27 56  1  0
 28 57  1  0
 29 58  1  0
 30 59  1  0
 32 60  1  0
 34 61  1  0
 38 62  1  0
 41 63  1  0
 41 64  1  0
M  CHG  3   5  -1  16   1  19  -1
M  END
>  <EmbedRMS>  (701) 
0.08701668115192453

$$$$

     RDKit          3D

 64 67  0  0  0  0  0  0  0  0999 V2000
   10.2857   43.7715   33.8043 C   0  0  0  0  0  0  0  0  0  0  0  0
   11.4112   43.5868   34.3539 O   0  0  0  0  0  0  0  0  0  0  0  0
    9.3661   42.7314   33.7008 O   0  0  0  0  0  0  0  0  0  0  0  0
    9.8847   41.2348   34.2852 P   0  0  0  0  0  5  0  0  0  0  0  0
   10.3655   41.4713   35.8755 O   0  0  0  0  0  1  0  0  0  0  0  0
    9.9578   45.1109   33.2448 C   0  0  2  0  0  0  0  0  0  0  0  0
   11.0669   46.0361   33.4875 N   0  0  0  0  0  0  0  0  0  0  0  0
    8.6104   45.6656   33.7744 C   0  0  0  0  0  0  0  0  0  0  0  0
    8.3795   45.4421   35.2452 C   0  0  0  0  0  0  0  0  0  0  0  0
    9.3730   45.7684   36.1720 O   0  0  0  0  0  0  0  0  0  0  0  0
    7.2731   44.9780   35.6349 O   0  0  0  0  0  0  0  0  0  0  0  0
    9.2193   45.5583   37.5733 C   0  0  0  0  0  0  0  0  0  0  0  0
   10.4978   45.8941   38.3054 C   0  0  0  0  0  0  0  0  0  0  0  0
   10.4872   46.4321   39.6193 C   0  0  0  0  0  0  0  0  0  0  0  0
   11.7349   45.6362   37.6829 C   0  0  0  0  0  0  0  0  0  0  0  0
    9.2632   46.6050   40.3537 N   0  0  0  0  0  4  0  0  0  0  0  0
   11.7057   46.7829   40.2285 C   0  0  0  0  0  0  0  0  0  0  0  0
   12.9338   45.9733   38.3123 C   0  0  0  0  0  0  0  0  0  0  0  0
    8.3081   45.6145   40.3516 O   0  0  0  0  0  1  0  0  0  0  0  0
    9.1424   47.5552   41.1544 O   0  0  0  0  0  0  0  0  0  0  0  0
   12.9188   46.5576   39.5770 C   0  0  0  0  0  0  0  0  0  0  0  0
    8.8075   40.1915   34.2097 O   0  0  0  0  0  0  0  0  0  0  0  0
   11.2365   40.7907   33.3694 O   0  0  0  0  0  0  0  0  0  0  0  0
   10.9151   40.6898   31.9964 C   0  0  0  0  0  0  0  0  0  0  0  0
   11.5268   39.3899   31.4377 C   0  0  0  0  0  0  0  0  0  0  0  0
   12.7506   39.0917   32.0841 O   0  0  0  0  0  0  0  0  0  0  0  0
   10.6121   38.1916   31.6453 C   0  0  0  0  0  0  0  0  0  0  0  0
   12.9429   37.6854   32.0296 C   0  0  0  0  0  0  0  0  0  0  0  0
    9.6070   38.0858   30.6603 O   0  0  0  0  0  0  0  0  0  0  0  0
   11.5845   37.0186   31.6880 C   0  0  0  0  0  0  0  0  0  0  0  0
   13.4899   37.2164   33.3250 N   0  0  0  0  0  0  0  0  0  0  0  0
   11.6202   36.3063   30.4693 O   0  0  0  0  0  0  0  0  0  0  0  0
   14.4758   36.3263   33.5739 C   0  0  0  0  0  0  0  0  0  0  0  0
   13.1176   37.6308   34.5699 C   0  0  0  0  0  0  0  0  0  0  0  0
   15.2065   35.6139   32.6746 N   0  0  0  0  0  0  0  0  0  0  0  0
   14.6731   36.2267   34.9191 C   0  0  0  0  0  0  0  0  0  0  0  0
   13.8224   37.0450   35.5792 N   0  0  0  0  0  0  0  0  0  0  0  0
   16.1640   34.7596   33.1551 C   0  0  0  0  0  0  0  0  0  0  0  0
   15.6517   35.3489   35.4136 C   0  0  0  0  0  0  0  0  0  0  0  0
   16.3795   34.6310   34.5046 N   0  0  0  0  0  0  0  0  0  0  0  0
   15.9006   35.1931   36.8094 N   0  0  0  0  0  0  0  0  0  0  0  0
    9.8601   44.9839   32.1438 H   0  0  0  0  0  0  0  0  0  0  0  0
   11.1039   46.3032   34.4963 H   0  0  0  0  0  0  0  0  0  0  0  0
   10.8957   46.9127   32.9430 H   0  0  0  0  0  0  0  0  0  0  0  0
    7.7874   45.1755   33.2083 H   0  0  0  0  0  0  0  0  0  0  0  0
    8.5395   46.7538   33.5627 H   0  0  0  0  0  0  0  0  0  0  0  0
    8.9664   44.4936   37.7676 H   0  0  0  0  0  0  0  0  0  0  0  0
    8.3864   46.2038   37.9232 H   0  0  0  0  0  0  0  0  0  0  0  0
   11.7755   45.1808   36.7019 H   0  0  0  0  0  0  0  0  0  0  0  0
   11.7173   47.2058   41.2252 H   0  0  0  0  0  0  0  0  0  0  0  0
   13.8769   45.7824   37.8165 H   0  0  0  0  0  0  0  0  0  0  0  0
   13.8502   46.8205   40.0618 H   0  0  0  0  0  0  0  0  0  0  0  0
   11.3818   41.5528   31.4750 H   0  0  0  0  0  0  0  0  0  0  0  0
    9.8249   40.7189   31.7593 H   0  0  0  0  0  0  0  0  0  0  0  0
   11.7316   39.5341   30.3523 H   0  0  0  0  0  0  0  0  0  0  0  0
   10.1213   38.2681   32.6413 H   0  0  0  0  0  0  0  0  0  0  0  0
   13.6882   37.4710   31.2319 H   0  0  0  0  0  0  0  0  0  0  0  0
   10.0257   38.1752   29.7656 H   0  0  0  0  0  0  0  0  0  0  0  0
   11.2796   36.3124   32.4916 H   0  0  0  0  0  0  0  0  0  0  0  0
   11.9871   36.9100   29.7715 H   0  0  0  0  0  0  0  0  0  0  0  0
   12.3366   38.3596   34.7454 H   0  0  0  0  0  0  0  0  0  0  0  0
   16.7576   34.1795   32.4622 H   0  0  0  0  0  0  0  0  0  0  0  0
   15.3532   35.7351   37.5143 H   0  0  0  0  0  0  0  0  0  0  0  0
   16.6368   34.5316   37.1418 H   0  0  0  0  0  0  0  0  0  0  0  0
  1  2  2  0
  1  3  1  0
  3  4  1  0
  4  5  1  0
  6  1  1  0
  7  6  1  0
  6  8  1  0
  8  9  1  0
  9 10  1  0
  9 11  2  0
 10 12  1  0
 12 13  1  0
 13 14  2  0
 15 13  1  0
 14 16  1  0
 14 17  1  0
 18 15  2  0
 16 19  1  0
 16 20  2  0
 17 21  2  0
 21 18  1  0
  4 22  2  0
  4 23  1  0
 24 23  1  0
 24 25  1  0
 25 26  1  0
 25 27  1  0
 26 28  1  0
 27 29  1  0
 27 30  1  0
 30 28  1  0
 28 31  1  0
 30 32  1  0
 33 31  1  0
 34 31  1  0
 35 33  2  0
 33 36  1  0
 37 34  2  0
 38 35  1  0
 36 39  2  0
 36 37  1  0
 40 38  2  0
 40 39  1  0
 39 41  1  0
  6 42  1  6
  7 43  1  0
  7 44  1  0
  8 45  1  0
  8 46  1  0
 12 47  1  0
 12 48  1  0
 15 49  1  0
 17 50  1  0
 18 51  1  0
 21 52  1  0
 24 53  1  0
 24 54  1  0
 25 55  1  0
 27 56  1  0
 28 57  1  0
 29 58  1  0
 30 59  1  0
 32 60  1  0
 34 61  1  0
 38 62  1  0
 41 63  1  0
 41 64  1  0
M  CHG  3   5  -1  16   1  19  -1
M  END
>  <EmbedRMS>  (702) 
0.0867286460360874

$$$$

     RDKit          3D

 64 67  0  0  0  0  0  0  0  0999 V2000
   10.2863   43.7710   33.8097 C   0  0  0  0  0  0  0  0  0  0  0  0
   11.4100   43.5818   34.3615 O   0  0  0  0  0  0  0  0  0  0  0  0
    9.3669   42.7308   33.7016 O   0  0  0  0  0  0  0  0  0  0  0  0
    9.8850   41.2328   34.2832 P   0  0  0  0  0  5  0  0  0  0  0  0
   10.3662   41.4674   35.8738 O   0  0  0  0  0  1  0  0  0  0  0  0
    9.9605   45.1126   33.2476 C   0  0  2  0  0  0  0  0  0  0  0  0
   11.0656   46.0479   33.4748 N   0  0  0  0  0  0  0  0  0  0  0  0
    8.6650   45.6566   33.8728 C   0  0  0  0  0  0  0  0  0  0  0  0
    8.2782   46.9657   33.2581 C   0  0  0  0  0  0  0  0  0  0  0  0
    8.7652   48.1532   33.8105 O   0  0  0  0  0  0  0  0  0  0  0  0
    7.5510   46.9850   32.2276 O   0  0  0  0  0  0  0  0  0  0  0  0
    8.4574   49.4356   33.2734 C   0  0  0  0  0  0  0  0  0  0  0  0
    9.1091   50.5076   34.1114 C   0  0  0  0  0  0  0  0  0  0  0  0
    8.8845   50.6162   35.5122 C   0  0  0  0  0  0  0  0  0  0  0  0
    9.9973   51.4038   33.4877 C   0  0  0  0  0  0  0  0  0  0  0  0
    7.9810   49.7419   36.2142 N   0  0  0  0  0  4  0  0  0  0  0  0
    9.5806   51.5966   36.2418 C   0  0  0  0  0  0  0  0  0  0  0  0
   10.6645   52.3789   34.2296 C   0  0  0  0  0  0  0  0  0  0  0  0
    8.2044   49.4444   37.5391 O   0  0  0  0  0  1  0  0  0  0  0  0
    6.9085   49.3761   35.6917 O   0  0  0  0  0  0  0  0  0  0  0  0
   10.4601   52.4722   35.6043 C   0  0  0  0  0  0  0  0  0  0  0  0
    8.8071   40.1904   34.2077 O   0  0  0  0  0  0  0  0  0  0  0  0
   11.2368   40.7900   33.3660 O   0  0  0  0  0  0  0  0  0  0  0  0
   10.9142   40.6849   31.9931 C   0  0  0  0  0  0  0  0  0  0  0  0
   11.5166   39.3773   31.4393 C   0  0  0  0  0  0  0  0  0  0  0  0
   12.7472   39.0854   32.0739 O   0  0  0  0  0  0  0  0  0  0  0  0
   10.6047   38.1867   31.6669 C   0  0  0  0  0  0  0  0  0  0  0  0
   12.9345   37.6791   32.0282 C   0  0  0  0  0  0  0  0  0  0  0  0
    9.6378   38.0917   30.6488 O   0  0  0  0  0  0  0  0  0  0  0  0
   11.5761   37.0129   31.7056 C   0  0  0  0  0  0  0  0  0  0  0  0
   13.4909   37.2177   33.3233 N   0  0  0  0  0  0  0  0  0  0  0  0
   11.6234   36.3371   30.4684 O   0  0  0  0  0  0  0  0  0  0  0  0
   14.4765   36.3272   33.5727 C   0  0  0  0  0  0  0  0  0  0  0  0
   13.1182   37.6316   34.5685 C   0  0  0  0  0  0  0  0  0  0  0  0
   15.2066   35.6137   32.6739 N   0  0  0  0  0  0  0  0  0  0  0  0
   14.6735   36.2276   34.9182 C   0  0  0  0  0  0  0  0  0  0  0  0
   13.8227   37.0457   35.5781 N   0  0  0  0  0  0  0  0  0  0  0  0
   16.1638   34.7593   33.1547 C   0  0  0  0  0  0  0  0  0  0  0  0
   15.6517   35.3492   35.4131 C   0  0  0  0  0  0  0  0  0  0  0  0
   16.3792   34.6309   34.5043 N   0  0  0  0  0  0  0  0  0  0  0  0
   15.9002   35.1934   36.8090 N   0  0  0  0  0  0  0  0  0  0  0  0
    9.8087   44.9961   32.1515 H   0  0  0  0  0  0  0  0  0  0  0  0
   11.9222   45.7016   32.9833 H   0  0  0  0  0  0  0  0  0  0  0  0
   11.2748   46.1195   34.4982 H   0  0  0  0  0  0  0  0  0  0  0  0
    8.7981   45.7928   34.9685 H   0  0  0  0  0  0  0  0  0  0  0  0
    7.8357   44.9312   33.7202 H   0  0  0  0  0  0  0  0  0  0  0  0
    8.8161   49.4784   32.2214 H   0  0  0  0  0  0  0  0  0  0  0  0
    7.3583   49.5927   33.2527 H   0  0  0  0  0  0  0  0  0  0  0  0
   10.1841   51.3440   32.4225 H   0  0  0  0  0  0  0  0  0  0  0  0
    9.4293   51.6952   37.3093 H   0  0  0  0  0  0  0  0  0  0  0  0
   11.3470   53.0600   33.7376 H   0  0  0  0  0  0  0  0  0  0  0  0
   10.9823   53.2271   36.1780 H   0  0  0  0  0  0  0  0  0  0  0  0
   11.3873   41.5415   31.4671 H   0  0  0  0  0  0  0  0  0  0  0  0
    9.8242   40.7213   31.7563 H   0  0  0  0  0  0  0  0  0  0  0  0
   11.6986   39.5012   30.3467 H   0  0  0  0  0  0  0  0  0  0  0  0
   10.1095   38.2770   32.6628 H   0  0  0  0  0  0  0  0  0  0  0  0
   13.6672   37.4545   31.2213 H   0  0  0  0  0  0  0  0  0  0  0  0
    8.9779   37.4156   30.9533 H   0  0  0  0  0  0  0  0  0  0  0  0
   11.2861   36.3041   32.5176 H   0  0  0  0  0  0  0  0  0  0  0  0
   10.8690   35.6918   30.4657 H   0  0  0  0  0  0  0  0  0  0  0  0
   12.3356   38.3587   34.7440 H   0  0  0  0  0  0  0  0  0  0  0  0
   16.7572   34.1786   32.4621 H   0  0  0  0  0  0  0  0  0  0  0  0
   15.3530   35.7358   37.5138 H   0  0  0  0  0  0  0  0  0  0  0  0
   16.6361   34.5315   37.1415 H   0  0  0  0  0  0  0  0  0  0  0  0
  1  2  2  0
  1  3  1  0
  3  4  1  0
  4  5  1  0
  6  1  1  0
  7  6  1  0
  6  8  1  0
  8  9  1  0
  9 10  1  0
  9 11  2  0
 10 12  1  0
 12 13  1  0
 13 14  2  0
 15 13  1  0
 14 16  1  0
 14 17  1  0
 18 15  2  0
 16 19  1  0
 16 20  2  0
 17 21  2  0
 21 18  1  0
  4 22  2  0
  4 23  1  0
 24 23  1  0
 24 25  1  0
 25 26  1  0
 25 27  1  0
 26 28  1  0
 27 29  1  0
 27 30  1  0
 30 28  1  0
 28 31  1  0
 30 32  1  0
 33 31  1  0
 34 31  1  0
 35 33  2  0
 33 36  1  0
 37 34  2  0
 38 35  1  0
 36 39  2  0
 36 37  1  0
 40 38  2  0
 40 39  1  0
 39 41  1  0
  6 42  1  6
  7 43  1  0
  7 44  1  0
  8 45  1  0
  8 46  1  0
 12 47  1  0
 12 48  1  0
 15 49  1  0
 17 50  1  0
 18 51  1  0
 21 52  1  0
 24 53  1  0
 24 54  1  0
 25 55  1  0
 27 56  1  0
 28 57  1  0
 29 58  1  0
 30 59  1  0
 32 60  1  0
 34 61  1  0
 38 62  1  0
 41 63  1  0
 41 64  1  0
M  CHG  3   5  -1  16   1  19  -1
M  END
>  <EmbedRMS>  (703) 
0.08952659144020589

$$$$

     RDKit          3D

 64 67  0  0  0  0  0  0  0  0999 V2000
   10.2864   43.7709   33.8097 C   0  0  0  0  0  0  0  0  0  0  0  0
   11.4101   43.5818   34.3616 O   0  0  0  0  0  0  0  0  0  0  0  0
    9.3672   42.7306   33.7015 O   0  0  0  0  0  0  0  0  0  0  0  0
    9.8851   41.2327   34.2837 P   0  0  0  0  0  5  0  0  0  0  0  0
   10.3652   41.4675   35.8745 O   0  0  0  0  0  1  0  0  0  0  0  0
    9.9605   45.1125   33.2476 C   0  0  2  0  0  0  0  0  0  0  0  0
   11.0656   46.0479   33.4748 N   0  0  0  0  0  0  0  0  0  0  0  0
    8.6650   45.6565   33.8729 C   0  0  0  0  0  0  0  0  0  0  0  0
    8.2789   46.9662   33.2590 C   0  0  0  0  0  0  0  0  0  0  0  0
    8.7619   48.1537   33.8153 O   0  0  0  0  0  0  0  0  0  0  0  0
    7.5572   46.9861   32.2246 O   0  0  0  0  0  0  0  0  0  0  0  0
    8.4641   49.4370   33.2709 C   0  0  0  0  0  0  0  0  0  0  0  0
    9.1149   50.5332   34.0837 C   0  0  0  0  0  0  0  0  0  0  0  0
    9.4831   51.7729   33.4964 C   0  0  0  0  0  0  0  0  0  0  0  0
    9.3375   50.3374   35.4615 C   0  0  0  0  0  0  0  0  0  0  0  0
    9.1865   52.0744   32.1216 N   0  0  0  0  0  4  0  0  0  0  0  0
   10.1390   52.7381   34.2821 C   0  0  0  0  0  0  0  0  0  0  0  0
    9.9727   51.3159   36.2273 C   0  0  0  0  0  0  0  0  0  0  0  0
    7.9635   51.7429   31.5853 O   0  0  0  0  0  1  0  0  0  0  0  0
    9.9546   52.8038   31.4607 O   0  0  0  0  0  0  0  0  0  0  0  0
   10.3833   52.5087   35.6363 C   0  0  0  0  0  0  0  0  0  0  0  0
    8.8075   40.1901   34.2072 O   0  0  0  0  0  0  0  0  0  0  0  0
   11.2381   40.7896   33.3686 O   0  0  0  0  0  0  0  0  0  0  0  0
   10.9194   40.6894   31.9948 C   0  0  0  0  0  0  0  0  0  0  0  0
   11.5171   39.3800   31.4396 C   0  0  0  0  0  0  0  0  0  0  0  0
   12.7479   39.0861   32.0733 O   0  0  0  0  0  0  0  0  0  0  0  0
   10.6031   38.1891   31.6666 C   0  0  0  0  0  0  0  0  0  0  0  0
   12.9335   37.6796   32.0279 C   0  0  0  0  0  0  0  0  0  0  0  0
    9.6397   38.0776   30.6456 O   0  0  0  0  0  0  0  0  0  0  0  0
   11.5739   37.0153   31.7057 C   0  0  0  0  0  0  0  0  0  0  0  0
   13.4903   37.2178   33.3231 N   0  0  0  0  0  0  0  0  0  0  0  0
   11.6211   36.3376   30.4695 O   0  0  0  0  0  0  0  0  0  0  0  0
   14.4761   36.3273   33.5725 C   0  0  0  0  0  0  0  0  0  0  0  0
   13.1179   37.6316   34.5684 C   0  0  0  0  0  0  0  0  0  0  0  0
   15.2063   35.6139   32.6737 N   0  0  0  0  0  0  0  0  0  0  0  0
   14.6733   36.2277   34.9180 C   0  0  0  0  0  0  0  0  0  0  0  0
   13.8225   37.0459   35.5779 N   0  0  0  0  0  0  0  0  0  0  0  0
   16.1636   34.7594   33.1546 C   0  0  0  0  0  0  0  0  0  0  0  0
   15.6515   35.3494   35.4129 C   0  0  0  0  0  0  0  0  0  0  0  0
   16.3791   34.6311   34.5041 N   0  0  0  0  0  0  0  0  0  0  0  0
   15.9001   35.1935   36.8088 N   0  0  0  0  0  0  0  0  0  0  0  0
    9.8087   44.9960   32.1515 H   0  0  0  0  0  0  0  0  0  0  0  0
   11.2747   46.1197   34.4982 H   0  0  0  0  0  0  0  0  0  0  0  0
   11.9222   45.7015   32.9834 H   0  0  0  0  0  0  0  0  0  0  0  0
    8.7979   45.7916   34.9687 H   0  0  0  0  0  0  0  0  0  0  0  0
    7.8355   44.9315   33.7193 H   0  0  0  0  0  0  0  0  0  0  0  0
    8.8414   49.4612   32.2261 H   0  0  0  0  0  0  0  0  0  0  0  0
    7.3641   49.5946   33.2690 H   0  0  0  0  0  0  0  0  0  0  0  0
    9.0293   49.4206   35.9481 H   0  0  0  0  0  0  0  0  0  0  0  0
   10.4378   53.6847   33.8497 H   0  0  0  0  0  0  0  0  0  0  0  0
   10.1490   51.1472   37.2819 H   0  0  0  0  0  0  0  0  0  0  0  0
   10.8782   53.2647   36.2323 H   0  0  0  0  0  0  0  0  0  0  0  0
    9.8317   40.7398   31.7544 H   0  0  0  0  0  0  0  0  0  0  0  0
   11.4014   41.5436   31.4731 H   0  0  0  0  0  0  0  0  0  0  0  0
   11.6982   39.5042   30.3469 H   0  0  0  0  0  0  0  0  0  0  0  0
   10.1090   38.2631   32.6649 H   0  0  0  0  0  0  0  0  0  0  0  0
   13.6656   37.4540   31.2207 H   0  0  0  0  0  0  0  0  0  0  0  0
    8.8965   38.6899   30.8852 H   0  0  0  0  0  0  0  0  0  0  0  0
   11.2846   36.3060   32.5175 H   0  0  0  0  0  0  0  0  0  0  0  0
   10.8524   35.7094   30.4590 H   0  0  0  0  0  0  0  0  0  0  0  0
   12.3353   38.3588   34.7439 H   0  0  0  0  0  0  0  0  0  0  0  0
   16.7570   34.1788   32.4619 H   0  0  0  0  0  0  0  0  0  0  0  0
   15.3529   35.7359   37.5136 H   0  0  0  0  0  0  0  0  0  0  0  0
   16.6360   34.5317   37.1413 H   0  0  0  0  0  0  0  0  0  0  0  0
  1  2  2  0
  1  3  1  0
  3  4  1  0
  4  5  1  0
  6  1  1  0
  7  6  1  0
  6  8  1  0
  8  9  1  0
  9 10  1  0
  9 11  2  0
 10 12  1  0
 12 13  1  0
 13 14  2  0
 15 13  1  0
 14 16  1  0
 14 17  1  0
 18 15  2  0
 16 19  1  0
 16 20  2  0
 17 21  2  0
 21 18  1  0
  4 22  2  0
  4 23  1  0
 24 23  1  0
 24 25  1  0
 25 26  1  0
 25 27  1  0
 26 28  1  0
 27 29  1  0
 27 30  1  0
 30 28  1  0
 28 31  1  0
 30 32  1  0
 33 31  1  0
 34 31  1  0
 35 33  2  0
 33 36  1  0
 37 34  2  0
 38 35  1  0
 36 39  2  0
 36 37  1  0
 40 38  2  0
 40 39  1  0
 39 41  1  0
  6 42  1  6
  7 43  1  0
  7 44  1  0
  8 45  1  0
  8 46  1  0
 12 47  1  0
 12 48  1  0
 15 49  1  0
 17 50  1  0
 18 51  1  0
 21 52  1  0
 24 53  1  0
 24 54  1  0
 25 55  1  0
 27 56  1  0
 28 57  1  0
 29 58  1  0
 30 59  1  0
 32 60  1  0
 34 61  1  0
 38 62  1  0
 41 63  1  0
 41 64  1  0
M  CHG  3   5  -1  16   1  19  -1
M  END
>  <EmbedRMS>  (704) 
0.08996336068492859

$$$$

     RDKit          3D

 64 67  0  0  0  0  0  0  0  0999 V2000
   10.2866   43.7708   33.8103 C   0  0  0  0  0  0  0  0  0  0  0  0
   11.4104   43.5817   34.3621 O   0  0  0  0  0  0  0  0  0  0  0  0
    9.3673   42.7307   33.7022 O   0  0  0  0  0  0  0  0  0  0  0  0
    9.8851   41.2327   34.2840 P   0  0  0  0  0  5  0  0  0  0  0  0
   10.3656   41.4671   35.8747 O   0  0  0  0  0  1  0  0  0  0  0  0
    9.9617   45.1113   33.2460 C   0  0  2  0  0  0  0  0  0  0  0  0
   11.0648   46.0482   33.4752 N   0  0  0  0  0  0  0  0  0  0  0  0
    8.6634   45.6559   33.8655 C   0  0  0  0  0  0  0  0  0  0  0  0
    8.2819   46.9654   33.2479 C   0  0  0  0  0  0  0  0  0  0  0  0
    7.9059   47.0027   31.9030 O   0  0  0  0  0  0  0  0  0  0  0  0
    8.3276   48.0227   33.9341 O   0  0  0  0  0  0  0  0  0  0  0  0
    7.6091   48.2146   31.2172 C   0  0  0  0  0  0  0  0  0  0  0  0
    7.3833   47.9252   29.7543 C   0  0  0  0  0  0  0  0  0  0  0  0
    8.3457   47.2386   28.9626 C   0  0  0  0  0  0  0  0  0  0  0  0
    6.1659   48.3187   29.1674 C   0  0  0  0  0  0  0  0  0  0  0  0
    9.6175   46.8205   29.4936 N   0  0  0  0  0  4  0  0  0  0  0  0
    8.0406   46.9401   27.6227 C   0  0  0  0  0  0  0  0  0  0  0  0
    5.8920   48.0267   27.8308 C   0  0  0  0  0  0  0  0  0  0  0  0
   10.2344   45.6965   28.9942 O   0  0  0  0  0  1  0  0  0  0  0  0
   10.2492   47.5469   30.2875 O   0  0  0  0  0  0  0  0  0  0  0  0
    6.8252   47.3346   27.0616 C   0  0  0  0  0  0  0  0  0  0  0  0
    8.8071   40.1905   34.2074 O   0  0  0  0  0  0  0  0  0  0  0  0
   11.2379   40.7893   33.3687 O   0  0  0  0  0  0  0  0  0  0  0  0
   10.9190   40.6893   31.9950 C   0  0  0  0  0  0  0  0  0  0  0  0
   11.5169   39.3801   31.4396 C   0  0  0  0  0  0  0  0  0  0  0  0
   12.7477   39.0862   32.0731 O   0  0  0  0  0  0  0  0  0  0  0  0
   10.6030   38.1890   31.6664 C   0  0  0  0  0  0  0  0  0  0  0  0
   12.9335   37.6797   32.0276 C   0  0  0  0  0  0  0  0  0  0  0  0
    9.6395   38.0776   30.6455 O   0  0  0  0  0  0  0  0  0  0  0  0
   11.5740   37.0153   31.7055 C   0  0  0  0  0  0  0  0  0  0  0  0
   13.4905   37.2178   33.3227 N   0  0  0  0  0  0  0  0  0  0  0  0
   11.6212   36.3377   30.4692 O   0  0  0  0  0  0  0  0  0  0  0  0
   14.4762   36.3273   33.5723 C   0  0  0  0  0  0  0  0  0  0  0  0
   13.1180   37.6319   34.5680 C   0  0  0  0  0  0  0  0  0  0  0  0
   15.2066   35.6138   32.6737 N   0  0  0  0  0  0  0  0  0  0  0  0
   14.6733   36.2278   34.9178 C   0  0  0  0  0  0  0  0  0  0  0  0
   13.8225   37.0461   35.5776 N   0  0  0  0  0  0  0  0  0  0  0  0
   16.1637   34.7593   33.1549 C   0  0  0  0  0  0  0  0  0  0  0  0
   15.6513   35.3495   35.4130 C   0  0  0  0  0  0  0  0  0  0  0  0
   16.3789   34.6310   34.5044 N   0  0  0  0  0  0  0  0  0  0  0  0
   15.8998   35.1943   36.8090 N   0  0  0  0  0  0  0  0  0  0  0  0
    9.8154   44.9914   32.1493 H   0  0  0  0  0  0  0  0  0  0  0  0
   11.9220   45.7036   32.9835 H   0  0  0  0  0  0  0  0  0  0  0  0
   11.2734   46.1177   34.4988 H   0  0  0  0  0  0  0  0  0  0  0  0
    8.7870   45.7756   34.9648 H   0  0  0  0  0  0  0  0  0  0  0  0
    7.8326   44.9381   33.6915 H   0  0  0  0  0  0  0  0  0  0  0  0
    6.7093   48.6765   31.6801 H   0  0  0  0  0  0  0  0  0  0  0  0
    8.4464   48.9362   31.3260 H   0  0  0  0  0  0  0  0  0  0  0  0
    5.4186   48.8461   29.7477 H   0  0  0  0  0  0  0  0  0  0  0  0
    8.7554   46.4137   27.0028 H   0  0  0  0  0  0  0  0  0  0  0  0
    4.9506   48.3324   27.3922 H   0  0  0  0  0  0  0  0  0  0  0  0
    6.6083   47.1057   26.0262 H   0  0  0  0  0  0  0  0  0  0  0  0
   11.4011   41.5436   31.4735 H   0  0  0  0  0  0  0  0  0  0  0  0
    9.8311   40.7396   31.7547 H   0  0  0  0  0  0  0  0  0  0  0  0
   11.6980   39.5050   30.3470 H   0  0  0  0  0  0  0  0  0  0  0  0
   10.1090   38.2631   32.6647 H   0  0  0  0  0  0  0  0  0  0  0  0
   13.6653   37.4541   31.2201 H   0  0  0  0  0  0  0  0  0  0  0  0
    8.8963   38.6900   30.8848 H   0  0  0  0  0  0  0  0  0  0  0  0
   11.2851   36.3057   32.5172 H   0  0  0  0  0  0  0  0  0  0  0  0
   10.8526   35.7094   30.4587 H   0  0  0  0  0  0  0  0  0  0  0  0
   12.3356   38.3592   34.7433 H   0  0  0  0  0  0  0  0  0  0  0  0
   16.7576   34.1788   32.4625 H   0  0  0  0  0  0  0  0  0  0  0  0
   16.6353   34.5324   37.1421 H   0  0  0  0  0  0  0  0  0  0  0  0
   15.3520   35.7368   37.5133 H   0  0  0  0  0  0  0  0  0  0  0  0
  1  2  2  0
  1  3  1  0
  3  4  1  0
  4  5  1  0
  6  1  1  0
  7  6  1  0
  6  8  1  0
  8  9  1  0
  9 10  1  0
  9 11  2  0
 10 12  1  0
 12 13  1  0
 13 14  2  0
 15 13  1  0
 14 16  1  0
 14 17  1  0
 18 15  2  0
 16 19  1  0
 16 20  2  0
 17 21  2  0
 21 18  1  0
  4 22  2  0
  4 23  1  0
 24 23  1  0
 24 25  1  0
 25 26  1  0
 25 27  1  0
 26 28  1  0
 27 29  1  0
 27 30  1  0
 30 28  1  0
 28 31  1  0
 30 32  1  0
 33 31  1  0
 34 31  1  0
 35 33  2  0
 33 36  1  0
 37 34  2  0
 38 35  1  0
 36 39  2  0
 36 37  1  0
 40 38  2  0
 40 39  1  0
 39 41  1  0
  6 42  1  6
  7 43  1  0
  7 44  1  0
  8 45  1  0
  8 46  1  0
 12 47  1  0
 12 48  1  0
 15 49  1  0
 17 50  1  0
 18 51  1  0
 21 52  1  0
 24 53  1  0
 24 54  1  0
 25 55  1  0
 27 56  1  0
 28 57  1  0
 29 58  1  0
 30 59  1  0
 32 60  1  0
 34 61  1  0
 38 62  1  0
 41 63  1  0
 41 64  1  0
M  CHG  3   5  -1  16   1  19  -1
M  END
>  <EmbedRMS>  (705) 
0.08996642036174139

$$$$

     RDKit          3D

 64 67  0  0  0  0  0  0  0  0999 V2000
   10.2865   43.7709   33.8097 C   0  0  0  0  0  0  0  0  0  0  0  0
   11.4102   43.5820   34.3617 O   0  0  0  0  0  0  0  0  0  0  0  0
    9.3671   42.7306   33.7021 O   0  0  0  0  0  0  0  0  0  0  0  0
    9.8851   41.2327   34.2841 P   0  0  0  0  0  5  0  0  0  0  0  0
   10.3653   41.4675   35.8748 O   0  0  0  0  0  1  0  0  0  0  0  0
    9.9615   45.1116   33.2451 C   0  0  2  0  0  0  0  0  0  0  0  0
   11.0644   46.0484   33.4756 N   0  0  0  0  0  0  0  0  0  0  0  0
    8.6631   45.6550   33.8643 C   0  0  0  0  0  0  0  0  0  0  0  0
    8.2705   46.9574   33.2393 C   0  0  0  0  0  0  0  0  0  0  0  0
    8.6938   48.1549   33.8221 O   0  0  0  0  0  0  0  0  0  0  0  0
    7.5940   46.9630   32.1748 O   0  0  0  0  0  0  0  0  0  0  0  0
    8.3586   49.4303   33.2866 C   0  0  0  0  0  0  0  0  0  0  0  0
    8.9709   50.5081   34.1414 C   0  0  0  0  0  0  0  0  0  0  0  0
   10.2846   50.9992   33.9182 C   0  0  0  0  0  0  0  0  0  0  0  0
    8.2094   51.0358   35.1997 C   0  0  0  0  0  0  0  0  0  0  0  0
   11.1324   50.4580   32.8887 N   0  0  0  0  0  4  0  0  0  0  0  0
   10.7703   52.0442   34.7260 C   0  0  0  0  0  0  0  0  0  0  0  0
    8.7169   52.0598   36.0005 C   0  0  0  0  0  0  0  0  0  0  0  0
   11.1752   49.1023   32.6591 O   0  0  0  0  0  1  0  0  0  0  0  0
   11.9672   51.1899   32.3164 O   0  0  0  0  0  0  0  0  0  0  0  0
    9.9918   52.5682   35.7594 C   0  0  0  0  0  0  0  0  0  0  0  0
    8.8076   40.1899   34.2076 O   0  0  0  0  0  0  0  0  0  0  0  0
   11.2378   40.7900   33.3684 O   0  0  0  0  0  0  0  0  0  0  0  0
   10.9182   40.6888   31.9948 C   0  0  0  0  0  0  0  0  0  0  0  0
   11.5176   39.3800   31.4398 C   0  0  0  0  0  0  0  0  0  0  0  0
   12.7482   39.0877   32.0748 O   0  0  0  0  0  0  0  0  0  0  0  0
   10.6052   38.1875   31.6657 C   0  0  0  0  0  0  0  0  0  0  0  0
   12.9363   37.6817   32.0284 C   0  0  0  0  0  0  0  0  0  0  0  0
    9.6419   38.0741   30.6448 O   0  0  0  0  0  0  0  0  0  0  0  0
   11.5766   37.0158   31.7042 C   0  0  0  0  0  0  0  0  0  0  0  0
   13.4910   37.2183   33.3234 N   0  0  0  0  0  0  0  0  0  0  0  0
   11.6101   36.3402   30.4675 O   0  0  0  0  0  0  0  0  0  0  0  0
   14.4763   36.3272   33.5728 C   0  0  0  0  0  0  0  0  0  0  0  0
   13.1183   37.6319   34.5686 C   0  0  0  0  0  0  0  0  0  0  0  0
   15.2067   35.6141   32.6739 N   0  0  0  0  0  0  0  0  0  0  0  0
   14.6732   36.2274   34.9183 C   0  0  0  0  0  0  0  0  0  0  0  0
   13.8225   37.0457   35.5782 N   0  0  0  0  0  0  0  0  0  0  0  0
   16.1638   34.7595   33.1549 C   0  0  0  0  0  0  0  0  0  0  0  0
   15.6514   35.3489   35.4133 C   0  0  0  0  0  0  0  0  0  0  0  0
   16.3790   34.6308   34.5044 N   0  0  0  0  0  0  0  0  0  0  0  0
   15.9003   35.1928   36.8092 N   0  0  0  0  0  0  0  0  0  0  0  0
    9.8146   44.9933   32.1485 H   0  0  0  0  0  0  0  0  0  0  0  0
   11.9232   45.7040   32.9868 H   0  0  0  0  0  0  0  0  0  0  0  0
   11.2697   46.1221   34.4995 H   0  0  0  0  0  0  0  0  0  0  0  0
    8.7938   45.7982   34.9594 H   0  0  0  0  0  0  0  0  0  0  0  0
    7.8365   44.9259   33.7149 H   0  0  0  0  0  0  0  0  0  0  0  0
    7.2519   49.5412   33.2641 H   0  0  0  0  0  0  0  0  0  0  0  0
    8.7122   49.5137   32.2368 H   0  0  0  0  0  0  0  0  0  0  0  0
    7.2129   50.6605   35.3996 H   0  0  0  0  0  0  0  0  0  0  0  0
   11.7660   52.4403   34.5690 H   0  0  0  0  0  0  0  0  0  0  0  0
    8.1179   52.4626   36.8071 H   0  0  0  0  0  0  0  0  0  0  0  0
   10.3822   53.3643   36.3805 H   0  0  0  0  0  0  0  0  0  0  0  0
   11.3985   41.5436   31.4725 H   0  0  0  0  0  0  0  0  0  0  0  0
    9.8302   40.7379   31.7551 H   0  0  0  0  0  0  0  0  0  0  0  0
   11.6993   39.5045   30.3472 H   0  0  0  0  0  0  0  0  0  0  0  0
   10.1103   38.2620   32.6638 H   0  0  0  0  0  0  0  0  0  0  0  0
   13.6702   37.4592   31.2220 H   0  0  0  0  0  0  0  0  0  0  0  0
    8.8997   38.6886   30.8818 H   0  0  0  0  0  0  0  0  0  0  0  0
   11.2695   36.3066   32.5085 H   0  0  0  0  0  0  0  0  0  0  0  0
   12.1419   35.5149   30.6144 H   0  0  0  0  0  0  0  0  0  0  0  0
   12.3363   38.3598   34.7439 H   0  0  0  0  0  0  0  0  0  0  0  0
   16.7577   34.1792   32.4624 H   0  0  0  0  0  0  0  0  0  0  0  0
   16.6364   34.5310   37.1415 H   0  0  0  0  0  0  0  0  0  0  0  0
   15.3537   35.7350   37.5146 H   0  0  0  0  0  0  0  0  0  0  0  0
  1  2  2  0
  1  3  1  0
  3  4  1  0
  4  5  1  0
  6  1  1  0
  7  6  1  0
  6  8  1  0
  8  9  1  0
  9 10  1  0
  9 11  2  0
 10 12  1  0
 12 13  1  0
 13 14  2  0
 15 13  1  0
 14 16  1  0
 14 17  1  0
 18 15  2  0
 16 19  1  0
 16 20  2  0
 17 21  2  0
 21 18  1  0
  4 22  2  0
  4 23  1  0
 24 23  1  0
 24 25  1  0
 25 26  1  0
 25 27  1  0
 26 28  1  0
 27 29  1  0
 27 30  1  0
 30 28  1  0
 28 31  1  0
 30 32  1  0
 33 31  1  0
 34 31  1  0
 35 33  2  0
 33 36  1  0
 37 34  2  0
 38 35  1  0
 36 39  2  0
 36 37  1  0
 40 38  2  0
 40 39  1  0
 39 41  1  0
  6 42  1  6
  7 43  1  0
  7 44  1  0
  8 45  1  0
  8 46  1  0
 12 47  1  0
 12 48  1  0
 15 49  1  0
 17 50  1  0
 18 51  1  0
 21 52  1  0
 24 53  1  0
 24 54  1  0
 25 55  1  0
 27 56  1  0
 28 57  1  0
 29 58  1  0
 30 59  1  0
 32 60  1  0
 34 61  1  0
 38 62  1  0
 41 63  1  0
 41 64  1  0
M  CHG  3   5  -1  16   1  19  -1
M  END
>  <EmbedRMS>  (706) 
0.08976396797988997

$$$$

     RDKit          3D

 64 67  0  0  0  0  0  0  0  0999 V2000
   10.2824   43.7752   33.8089 C   0  0  0  0  0  0  0  0  0  0  0  0
   11.4053   43.5918   34.3649 O   0  0  0  0  0  0  0  0  0  0  0  0
    9.3714   42.7283   33.6947 O   0  0  0  0  0  0  0  0  0  0  0  0
    9.8867   41.2333   34.2833 P   0  0  0  0  0  5  0  0  0  0  0  0
   10.3658   41.4706   35.8739 O   0  0  0  0  0  1  0  0  0  0  0  0
    9.9448   45.1222   33.2618 C   0  0  2  0  0  0  0  0  0  0  0  0
   11.0789   46.0247   33.4674 N   0  0  0  0  0  0  0  0  0  0  0  0
    8.6947   45.7024   33.9567 C   0  0  0  0  0  0  0  0  0  0  0  0
    7.4539   44.9324   33.6214 C   0  0  0  0  0  0  0  0  0  0  0  0
    6.9056   44.0653   34.5733 O   0  0  0  0  0  0  0  0  0  0  0  0
    6.9347   45.0495   32.4784 O   0  0  0  0  0  0  0  0  0  0  0  0
    5.7909   43.2133   34.3149 C   0  0  0  0  0  0  0  0  0  0  0  0
    4.5244   44.0186   34.1335 C   0  0  0  0  0  0  0  0  0  0  0  0
    3.6431   43.8260   33.0376 C   0  0  0  0  0  0  0  0  0  0  0  0
    4.1654   44.9227   35.1497 C   0  0  0  0  0  0  0  0  0  0  0  0
    3.9545   42.9238   31.9657 N   0  0  0  0  0  4  0  0  0  0  0  0
    2.4305   44.5360   32.9968 C   0  0  0  0  0  0  0  0  0  0  0  0
    2.9651   45.6316   35.0828 C   0  0  0  0  0  0  0  0  0  0  0  0
    5.1268   43.0718   31.2616 O   0  0  0  0  0  1  0  0  0  0  0  0
    3.0662   42.1773   31.5054 O   0  0  0  0  0  0  0  0  0  0  0  0
    2.0975   45.4362   34.0098 C   0  0  0  0  0  0  0  0  0  0  0  0
    8.8078   40.1918   34.2080 O   0  0  0  0  0  0  0  0  0  0  0  0
   11.2379   40.7880   33.3681 O   0  0  0  0  0  0  0  0  0  0  0  0
   10.9161   40.6878   31.9949 C   0  0  0  0  0  0  0  0  0  0  0  0
   11.5263   39.3869   31.4361 C   0  0  0  0  0  0  0  0  0  0  0  0
   12.7494   39.0890   32.0814 O   0  0  0  0  0  0  0  0  0  0  0  0
   10.6124   38.1893   31.6460 C   0  0  0  0  0  0  0  0  0  0  0  0
   12.9374   37.6824   32.0300 C   0  0  0  0  0  0  0  0  0  0  0  0
    9.6150   38.0839   30.6538 O   0  0  0  0  0  0  0  0  0  0  0  0
   11.5792   37.0135   31.7013 C   0  0  0  0  0  0  0  0  0  0  0  0
   13.4906   37.2169   33.3242 N   0  0  0  0  0  0  0  0  0  0  0  0
   11.6215   36.3251   30.4725 O   0  0  0  0  0  0  0  0  0  0  0  0
   14.4763   36.3266   33.5731 C   0  0  0  0  0  0  0  0  0  0  0  0
   13.1181   37.6308   34.5693 C   0  0  0  0  0  0  0  0  0  0  0  0
   15.2066   35.6137   32.6740 N   0  0  0  0  0  0  0  0  0  0  0  0
   14.6735   36.2270   34.9185 C   0  0  0  0  0  0  0  0  0  0  0  0
   13.8228   37.0451   35.5787 N   0  0  0  0  0  0  0  0  0  0  0  0
   16.1639   34.7593   33.1547 C   0  0  0  0  0  0  0  0  0  0  0  0
   15.6519   35.3489   35.4132 C   0  0  0  0  0  0  0  0  0  0  0  0
   16.3795   34.6308   34.5042 N   0  0  0  0  0  0  0  0  0  0  0  0
   15.9006   35.1931   36.8090 N   0  0  0  0  0  0  0  0  0  0  0  0
    9.7497   45.0251   32.1694 H   0  0  0  0  0  0  0  0  0  0  0  0
   11.8817   45.6839   32.8883 H   0  0  0  0  0  0  0  0  0  0  0  0
   10.8343   46.9622   33.0725 H   0  0  0  0  0  0  0  0  0  0  0  0
    8.8426   45.7107   35.0591 H   0  0  0  0  0  0  0  0  0  0  0  0
    8.5419   46.7553   33.6344 H   0  0  0  0  0  0  0  0  0  0  0  0
    6.0226   42.5552   33.4555 H   0  0  0  0  0  0  0  0  0  0  0  0
    5.6532   42.5455   35.1911 H   0  0  0  0  0  0  0  0  0  0  0  0
    4.8143   45.0705   36.0045 H   0  0  0  0  0  0  0  0  0  0  0  0
    1.7478   44.4010   32.1672 H   0  0  0  0  0  0  0  0  0  0  0  0
    2.7024   46.3258   35.8706 H   0  0  0  0  0  0  0  0  0  0  0  0
    1.1644   45.9826   33.9626 H   0  0  0  0  0  0  0  0  0  0  0  0
   11.3839   41.5501   31.4734 H   0  0  0  0  0  0  0  0  0  0  0  0
    9.8259   40.7181   31.7578 H   0  0  0  0  0  0  0  0  0  0  0  0
   11.7291   39.5286   30.3500 H   0  0  0  0  0  0  0  0  0  0  0  0
   10.1141   38.2720   32.6379 H   0  0  0  0  0  0  0  0  0  0  0  0
   13.6726   37.4631   31.2239 H   0  0  0  0  0  0  0  0  0  0  0  0
   10.0534   38.1084   29.7638 H   0  0  0  0  0  0  0  0  0  0  0  0
   11.2645   36.3134   32.5107 H   0  0  0  0  0  0  0  0  0  0  0  0
   12.1546   35.5030   30.6315 H   0  0  0  0  0  0  0  0  0  0  0  0
   12.3361   38.3586   34.7449 H   0  0  0  0  0  0  0  0  0  0  0  0
   16.7574   34.1788   32.4619 H   0  0  0  0  0  0  0  0  0  0  0  0
   16.6366   34.5314   37.1415 H   0  0  0  0  0  0  0  0  0  0  0  0
   15.3533   35.7353   37.5139 H   0  0  0  0  0  0  0  0  0  0  0  0
  1  2  2  0
  1  3  1  0
  3  4  1  0
  4  5  1  0
  6  1  1  0
  7  6  1  0
  6  8  1  0
  8  9  1  0
  9 10  1  0
  9 11  2  0
 10 12  1  0
 12 13  1  0
 13 14  2  0
 15 13  1  0
 14 16  1  0
 14 17  1  0
 18 15  2  0
 16 19  1  0
 16 20  2  0
 17 21  2  0
 21 18  1  0
  4 22  2  0
  4 23  1  0
 24 23  1  0
 24 25  1  0
 25 26  1  0
 25 27  1  0
 26 28  1  0
 27 29  1  0
 27 30  1  0
 30 28  1  0
 28 31  1  0
 30 32  1  0
 33 31  1  0
 34 31  1  0
 35 33  2  0
 33 36  1  0
 37 34  2  0
 38 35  1  0
 36 39  2  0
 36 37  1  0
 40 38  2  0
 40 39  1  0
 39 41  1  0
  6 42  1  6
  7 43  1  0
  7 44  1  0
  8 45  1  0
  8 46  1  0
 12 47  1  0
 12 48  1  0
 15 49  1  0
 17 50  1  0
 18 51  1  0
 21 52  1  0
 24 53  1  0
 24 54  1  0
 25 55  1  0
 27 56  1  0
 28 57  1  0
 29 58  1  0
 30 59  1  0
 32 60  1  0
 34 61  1  0
 38 62  1  0
 41 63  1  0
 41 64  1  0
M  CHG  3   5  -1  16   1  19  -1
M  END
>  <EmbedRMS>  (707) 
0.08845301000872238

$$$$

     RDKit          3D

 64 67  0  0  0  0  0  0  0  0999 V2000
   10.2862   43.7711   33.8099 C   0  0  0  0  0  0  0  0  0  0  0  0
   11.4100   43.5818   34.3615 O   0  0  0  0  0  0  0  0  0  0  0  0
    9.3665   42.7311   33.7022 O   0  0  0  0  0  0  0  0  0  0  0  0
    9.8845   41.2331   34.2840 P   0  0  0  0  0  5  0  0  0  0  0  0
   10.3659   41.4676   35.8745 O   0  0  0  0  0  1  0  0  0  0  0  0
    9.9608   45.1124   33.2474 C   0  0  2  0  0  0  0  0  0  0  0  0
   11.0654   46.0477   33.4747 N   0  0  0  0  0  0  0  0  0  0  0  0
    8.6652   45.6572   33.8717 C   0  0  0  0  0  0  0  0  0  0  0  0
    8.2882   46.9727   33.2654 C   0  0  0  0  0  0  0  0  0  0  0  0
    8.6334   48.1584   33.9235 O   0  0  0  0  0  0  0  0  0  0  0  0
    7.6977   47.0016   32.1511 O   0  0  0  0  0  0  0  0  0  0  0  0
    8.4119   49.4517   33.3648 C   0  0  0  0  0  0  0  0  0  0  0  0
    9.3609   49.7035   32.2150 C   0  0  0  0  0  0  0  0  0  0  0  0
   10.7754   49.6287   32.3613 C   0  0  0  0  0  0  0  0  0  0  0  0
    8.8153   49.9695   30.9452 C   0  0  0  0  0  0  0  0  0  0  0  0
   11.4079   49.3697   33.6303 N   0  0  0  0  0  4  0  0  0  0  0  0
   11.5873   49.7961   31.2242 C   0  0  0  0  0  0  0  0  0  0  0  0
    9.6421   50.1463   29.8359 C   0  0  0  0  0  0  0  0  0  0  0  0
   12.6590   48.7976   33.6698 O   0  0  0  0  0  1  0  0  0  0  0  0
   10.9169   49.8002   34.6933 O   0  0  0  0  0  0  0  0  0  0  0  0
   11.0247   50.0556   29.9743 C   0  0  0  0  0  0  0  0  0  0  0  0
    8.8069   40.1905   34.2081 O   0  0  0  0  0  0  0  0  0  0  0  0
   11.2363   40.7907   33.3671 O   0  0  0  0  0  0  0  0  0  0  0  0
   10.9133   40.6860   31.9945 C   0  0  0  0  0  0  0  0  0  0  0  0
   11.5169   39.3797   31.4409 C   0  0  0  0  0  0  0  0  0  0  0  0
   12.7487   39.0887   32.0763 O   0  0  0  0  0  0  0  0  0  0  0  0
   10.6051   38.1876   31.6659 C   0  0  0  0  0  0  0  0  0  0  0  0
   12.9411   37.6829   32.0278 C   0  0  0  0  0  0  0  0  0  0  0  0
    9.6358   38.0930   30.6502 O   0  0  0  0  0  0  0  0  0  0  0  0
   11.5827   37.0179   31.6936 C   0  0  0  0  0  0  0  0  0  0  0  0
   13.4909   37.2177   33.3239 N   0  0  0  0  0  0  0  0  0  0  0  0
   11.6141   36.3180   30.4675 O   0  0  0  0  0  0  0  0  0  0  0  0
   14.4762   36.3270   33.5733 C   0  0  0  0  0  0  0  0  0  0  0  0
   13.1179   37.6317   34.5689 C   0  0  0  0  0  0  0  0  0  0  0  0
   15.2067   35.6140   32.6743 N   0  0  0  0  0  0  0  0  0  0  0  0
   14.6731   36.2273   34.9186 C   0  0  0  0  0  0  0  0  0  0  0  0
   13.8223   37.0456   35.5785 N   0  0  0  0  0  0  0  0  0  0  0  0
   16.1639   34.7595   33.1551 C   0  0  0  0  0  0  0  0  0  0  0  0
   15.6515   35.3491   35.4134 C   0  0  0  0  0  0  0  0  0  0  0  0
   16.3792   34.6310   34.5045 N   0  0  0  0  0  0  0  0  0  0  0  0
   15.9002   35.1933   36.8092 N   0  0  0  0  0  0  0  0  0  0  0  0
    9.8100   44.9957   32.1512 H   0  0  0  0  0  0  0  0  0  0  0  0
   11.9220   45.7031   32.9823 H   0  0  0  0  0  0  0  0  0  0  0  0
   11.2747   46.1199   34.4980 H   0  0  0  0  0  0  0  0  0  0  0  0
    8.7937   45.7813   34.9694 H   0  0  0  0  0  0  0  0  0  0  0  0
    7.8326   44.9386   33.7064 H   0  0  0  0  0  0  0  0  0  0  0  0
    8.5608   50.2236   34.1467 H   0  0  0  0  0  0  0  0  0  0  0  0
    7.3488   49.5367   33.0485 H   0  0  0  0  0  0  0  0  0  0  0  0
    7.7427   50.0286   30.8074 H   0  0  0  0  0  0  0  0  0  0  0  0
   12.6652   49.7407   31.3069 H   0  0  0  0  0  0  0  0  0  0  0  0
    9.2085   50.3470   28.8647 H   0  0  0  0  0  0  0  0  0  0  0  0
   11.6638   50.1890   29.1109 H   0  0  0  0  0  0  0  0  0  0  0  0
   11.3854   41.5434   31.4688 H   0  0  0  0  0  0  0  0  0  0  0  0
    9.8233   40.7211   31.7578 H   0  0  0  0  0  0  0  0  0  0  0  0
   11.6994   39.5065   30.3487 H   0  0  0  0  0  0  0  0  0  0  0  0
   10.1120   38.2722   32.6631 H   0  0  0  0  0  0  0  0  0  0  0  0
   13.6816   37.4633   31.2269 H   0  0  0  0  0  0  0  0  0  0  0  0
    9.0037   37.3827   30.9348 H   0  0  0  0  0  0  0  0  0  0  0  0
   11.2846   36.3040   32.4928 H   0  0  0  0  0  0  0  0  0  0  0  0
   11.8849   36.9590   29.7588 H   0  0  0  0  0  0  0  0  0  0  0  0
   12.3363   38.3599   34.7441 H   0  0  0  0  0  0  0  0  0  0  0  0
   16.7574   34.1791   32.4623 H   0  0  0  0  0  0  0  0  0  0  0  0
   16.6363   34.5317   37.1417 H   0  0  0  0  0  0  0  0  0  0  0  0
   15.3529   35.7356   37.5141 H   0  0  0  0  0  0  0  0  0  0  0  0
  1  2  2  0
  1  3  1  0
  3  4  1  0
  4  5  1  0
  6  1  1  0
  7  6  1  0
  6  8  1  0
  8  9  1  0
  9 10  1  0
  9 11  2  0
 10 12  1  0
 12 13  1  0
 13 14  2  0
 15 13  1  0
 14 16  1  0
 14 17  1  0
 18 15  2  0
 16 19  1  0
 16 20  2  0
 17 21  2  0
 21 18  1  0
  4 22  2  0
  4 23  1  0
 24 23  1  0
 24 25  1  0
 25 26  1  0
 25 27  1  0
 26 28  1  0
 27 29  1  0
 27 30  1  0
 30 28  1  0
 28 31  1  0
 30 32  1  0
 33 31  1  0
 34 31  1  0
 35 33  2  0
 33 36  1  0
 37 34  2  0
 38 35  1  0
 36 39  2  0
 36 37  1  0
 40 38  2  0
 40 39  1  0
 39 41  1  0
  6 42  1  6
  7 43  1  0
  7 44  1  0
  8 45  1  0
  8 46  1  0
 12 47  1  0
 12 48  1  0
 15 49  1  0
 17 50  1  0
 18 51  1  0
 21 52  1  0
 24 53  1  0
 24 54  1  0
 25 55  1  0
 27 56  1  0
 28 57  1  0
 29 58  1  0
 30 59  1  0
 32 60  1  0
 34 61  1  0
 38 62  1  0
 41 63  1  0
 41 64  1  0
M  CHG  3   5  -1  16   1  19  -1
M  END
>  <EmbedRMS>  (708) 
0.0883496690952718

$$$$

     RDKit          3D

 64 67  0  0  0  0  0  0  0  0999 V2000
   10.2852   43.7732   33.8076 C   0  0  0  0  0  0  0  0  0  0  0  0
   11.4100   43.5883   34.3586 O   0  0  0  0  0  0  0  0  0  0  0  0
    9.3668   42.7319   33.7027 O   0  0  0  0  0  0  0  0  0  0  0  0
    9.8850   41.2343   34.2849 P   0  0  0  0  0  5  0  0  0  0  0  0
   10.3652   41.4665   35.8754 O   0  0  0  0  0  1  0  0  0  0  0  0
    9.9562   45.1126   33.2464 C   0  0  2  0  0  0  0  0  0  0  0  0
   11.0691   46.0353   33.4791 N   0  0  0  0  0  0  0  0  0  0  0  0
    8.6506   45.6647   33.8543 C   0  0  0  0  0  0  0  0  0  0  0  0
    8.7815   45.9676   35.3175 C   0  0  0  0  0  0  0  0  0  0  0  0
    8.6667   44.9307   36.2504 O   0  0  0  0  0  0  0  0  0  0  0  0
    9.0231   47.1474   35.6908 O   0  0  0  0  0  0  0  0  0  0  0  0
    8.7691   45.1241   37.6610 C   0  0  0  0  0  0  0  0  0  0  0  0
   10.1725   45.5298   38.0522 C   0  0  0  0  0  0  0  0  0  0  0  0
   10.4477   46.6564   38.8709 C   0  0  0  0  0  0  0  0  0  0  0  0
   11.2340   44.6963   37.6576 C   0  0  0  0  0  0  0  0  0  0  0  0
    9.4098   47.5449   39.3104 N   0  0  0  0  0  4  0  0  0  0  0  0
   11.7719   46.9107   39.2688 C   0  0  0  0  0  0  0  0  0  0  0  0
   12.5445   44.9749   38.0472 C   0  0  0  0  0  0  0  0  0  0  0  0
    8.5964   48.1618   38.3887 O   0  0  0  0  0  1  0  0  0  0  0  0
    9.4040   47.9568   40.4888 O   0  0  0  0  0  0  0  0  0  0  0  0
   12.8129   46.0792   38.8536 C   0  0  0  0  0  0  0  0  0  0  0  0
    8.8075   40.1915   34.2079 O   0  0  0  0  0  0  0  0  0  0  0  0
   11.2368   40.7912   33.3690 O   0  0  0  0  0  0  0  0  0  0  0  0
   10.9152   40.6900   31.9960 C   0  0  0  0  0  0  0  0  0  0  0  0
   11.5269   39.3899   31.4375 C   0  0  0  0  0  0  0  0  0  0  0  0
   12.7506   39.0917   32.0840 O   0  0  0  0  0  0  0  0  0  0  0  0
   10.6121   38.1916   31.6452 C   0  0  0  0  0  0  0  0  0  0  0  0
   12.9429   37.6854   32.0296 C   0  0  0  0  0  0  0  0  0  0  0  0
    9.6070   38.0858   30.6603 O   0  0  0  0  0  0  0  0  0  0  0  0
   11.5845   37.0187   31.6880 C   0  0  0  0  0  0  0  0  0  0  0  0
   13.4899   37.2164   33.3250 N   0  0  0  0  0  0  0  0  0  0  0  0
   11.6202   36.3063   30.4693 O   0  0  0  0  0  0  0  0  0  0  0  0
   14.4758   36.3264   33.5739 C   0  0  0  0  0  0  0  0  0  0  0  0
   13.1176   37.6308   34.5699 C   0  0  0  0  0  0  0  0  0  0  0  0
   15.2065   35.6139   32.6746 N   0  0  0  0  0  0  0  0  0  0  0  0
   14.6731   36.2267   34.9191 C   0  0  0  0  0  0  0  0  0  0  0  0
   13.8224   37.0450   35.5792 N   0  0  0  0  0  0  0  0  0  0  0  0
   16.1640   34.7596   33.1551 C   0  0  0  0  0  0  0  0  0  0  0  0
   15.6517   35.3489   35.4136 C   0  0  0  0  0  0  0  0  0  0  0  0
   16.3795   34.6310   34.5046 N   0  0  0  0  0  0  0  0  0  0  0  0
   15.9006   35.1931   36.8094 N   0  0  0  0  0  0  0  0  0  0  0  0
    9.8041   44.9939   32.1499 H   0  0  0  0  0  0  0  0  0  0  0  0
   11.8879   45.7158   32.9108 H   0  0  0  0  0  0  0  0  0  0  0  0
   10.8082   46.9716   33.0922 H   0  0  0  0  0  0  0  0  0  0  0  0
    8.3602   46.5914   33.3126 H   0  0  0  0  0  0  0  0  0  0  0  0
    7.8246   44.9357   33.7065 H   0  0  0  0  0  0  0  0  0  0  0  0
    7.9956   45.8435   37.9913 H   0  0  0  0  0  0  0  0  0  0  0  0
    8.5352   44.1612   38.1619 H   0  0  0  0  0  0  0  0  0  0  0  0
   11.0427   43.8184   37.0554 H   0  0  0  0  0  0  0  0  0  0  0  0
   11.9987   47.7666   39.8922 H   0  0  0  0  0  0  0  0  0  0  0  0
   13.3517   44.3262   37.7322 H   0  0  0  0  0  0  0  0  0  0  0  0
   13.8292   46.2905   39.1600 H   0  0  0  0  0  0  0  0  0  0  0  0
   11.3820   41.5528   31.4744 H   0  0  0  0  0  0  0  0  0  0  0  0
    9.8251   40.7191   31.7590 H   0  0  0  0  0  0  0  0  0  0  0  0
   11.7318   39.5339   30.3522 H   0  0  0  0  0  0  0  0  0  0  0  0
   10.1214   38.2682   32.6413 H   0  0  0  0  0  0  0  0  0  0  0  0
   13.6882   37.4710   31.2319 H   0  0  0  0  0  0  0  0  0  0  0  0
   10.0257   38.1752   29.7656 H   0  0  0  0  0  0  0  0  0  0  0  0
   11.2796   36.3124   32.4916 H   0  0  0  0  0  0  0  0  0  0  0  0
   11.9872   36.9100   29.7715 H   0  0  0  0  0  0  0  0  0  0  0  0
   12.3366   38.3597   34.7454 H   0  0  0  0  0  0  0  0  0  0  0  0
   16.7576   34.1794   32.4622 H   0  0  0  0  0  0  0  0  0  0  0  0
   15.3532   35.7351   37.5143 H   0  0  0  0  0  0  0  0  0  0  0  0
   16.6368   34.5316   37.1418 H   0  0  0  0  0  0  0  0  0  0  0  0
  1  2  2  0
  1  3  1  0
  3  4  1  0
  4  5  1  0
  6  1  1  0
  7  6  1  0
  6  8  1  0
  8  9  1  0
  9 10  1  0
  9 11  2  0
 10 12  1  0
 12 13  1  0
 13 14  2  0
 15 13  1  0
 14 16  1  0
 14 17  1  0
 18 15  2  0
 16 19  1  0
 16 20  2  0
 17 21  2  0
 21 18  1  0
  4 22  2  0
  4 23  1  0
 24 23  1  0
 24 25  1  0
 25 26  1  0
 25 27  1  0
 26 28  1  0
 27 29  1  0
 27 30  1  0
 30 28  1  0
 28 31  1  0
 30 32  1  0
 33 31  1  0
 34 31  1  0
 35 33  2  0
 33 36  1  0
 37 34  2  0
 38 35  1  0
 36 39  2  0
 36 37  1  0
 40 38  2  0
 40 39  1  0
 39 41  1  0
  6 42  1  6
  7 43  1  0
  7 44  1  0
  8 45  1  0
  8 46  1  0
 12 47  1  0
 12 48  1  0
 15 49  1  0
 17 50  1  0
 18 51  1  0
 21 52  1  0
 24 53  1  0
 24 54  1  0
 25 55  1  0
 27 56  1  0
 28 57  1  0
 29 58  1  0
 30 59  1  0
 32 60  1  0
 34 61  1  0
 38 62  1  0
 41 63  1  0
 41 64  1  0
M  CHG  3   5  -1  16   1  19  -1
M  END
>  <EmbedRMS>  (709) 
0.08716340675691626

$$$$

     RDKit          3D

 64 67  0  0  0  0  0  0  0  0999 V2000
   10.2837   43.7721   33.8124 C   0  0  0  0  0  0  0  0  0  0  0  0
   11.4075   43.5833   34.3644 O   0  0  0  0  0  0  0  0  0  0  0  0
    9.3710   42.7276   33.6949 O   0  0  0  0  0  0  0  0  0  0  0  0
    9.8856   41.2322   34.2835 P   0  0  0  0  0  5  0  0  0  0  0  0
   10.3645   41.4699   35.8743 O   0  0  0  0  0  1  0  0  0  0  0  0
    9.9530   45.1201   33.2603 C   0  0  2  0  0  0  0  0  0  0  0  0
   11.0716   46.0429   33.4644 N   0  0  0  0  0  0  0  0  0  0  0  0
    8.6880   45.7097   33.9137 C   0  0  0  0  0  0  0  0  0  0  0  0
    7.4393   44.9586   33.5218 C   0  0  0  0  0  0  0  0  0  0  0  0
    6.7654   44.0831   34.3873 O   0  0  0  0  0  0  0  0  0  0  0  0
    6.9999   45.0946   32.3495 O   0  0  0  0  0  0  0  0  0  0  0  0
    7.0483   43.9083   35.7763 C   0  0  0  0  0  0  0  0  0  0  0  0
    6.5893   45.1038   36.5798 C   0  0  0  0  0  0  0  0  0  0  0  0
    5.2840   45.6494   36.4485 C   0  0  0  0  0  0  0  0  0  0  0  0
    7.4958   45.7021   37.4745 C   0  0  0  0  0  0  0  0  0  0  0  0
    4.2945   45.0518   35.5915 N   0  0  0  0  0  4  0  0  0  0  0  0
    4.9499   46.8080   37.1736 C   0  0  0  0  0  0  0  0  0  0  0  0
    7.1384   46.8416   38.1959 C   0  0  0  0  0  0  0  0  0  0  0  0
    4.1540   43.6849   35.5309 O   0  0  0  0  0  1  0  0  0  0  0  0
    3.4443   45.7681   35.0231 O   0  0  0  0  0  0  0  0  0  0  0  0
    5.8707   47.3979   38.0402 C   0  0  0  0  0  0  0  0  0  0  0  0
    8.8068   40.1909   34.2081 O   0  0  0  0  0  0  0  0  0  0  0  0
   11.2373   40.7872   33.3687 O   0  0  0  0  0  0  0  0  0  0  0  0
   10.9162   40.6877   31.9953 C   0  0  0  0  0  0  0  0  0  0  0  0
   11.5263   39.3869   31.4362 C   0  0  0  0  0  0  0  0  0  0  0  0
   12.7495   39.0890   32.0814 O   0  0  0  0  0  0  0  0  0  0  0  0
   10.6124   38.1894   31.6460 C   0  0  0  0  0  0  0  0  0  0  0  0
   12.9374   37.6824   32.0299 C   0  0  0  0  0  0  0  0  0  0  0  0
    9.6151   38.0839   30.6537 O   0  0  0  0  0  0  0  0  0  0  0  0
   11.5793   37.0136   31.7013 C   0  0  0  0  0  0  0  0  0  0  0  0
   13.4905   37.2167   33.3242 N   0  0  0  0  0  0  0  0  0  0  0  0
   11.6215   36.3252   30.4724 O   0  0  0  0  0  0  0  0  0  0  0  0
   14.4761   36.3263   33.5731 C   0  0  0  0  0  0  0  0  0  0  0  0
   13.1181   37.6307   34.5694 C   0  0  0  0  0  0  0  0  0  0  0  0
   15.2063   35.6134   32.6740 N   0  0  0  0  0  0  0  0  0  0  0  0
   14.6735   36.2268   34.9184 C   0  0  0  0  0  0  0  0  0  0  0  0
   13.8229   37.0450   35.5787 N   0  0  0  0  0  0  0  0  0  0  0  0
   16.1638   34.7591   33.1546 C   0  0  0  0  0  0  0  0  0  0  0  0
   15.6520   35.3490   35.4131 C   0  0  0  0  0  0  0  0  0  0  0  0
   16.3796   34.6309   34.5042 N   0  0  0  0  0  0  0  0  0  0  0  0
   15.9007   35.1934   36.8090 N   0  0  0  0  0  0  0  0  0  0  0  0
    9.7811   45.0174   32.1658 H   0  0  0  0  0  0  0  0  0  0  0  0
   11.9147   45.6872   32.9564 H   0  0  0  0  0  0  0  0  0  0  0  0
   11.3023   46.1135   34.4834 H   0  0  0  0  0  0  0  0  0  0  0  0
    8.5687   46.7619   33.5745 H   0  0  0  0  0  0  0  0  0  0  0  0
    8.8185   45.7508   35.0121 H   0  0  0  0  0  0  0  0  0  0  0  0
    8.1310   43.7027   35.9171 H   0  0  0  0  0  0  0  0  0  0  0  0
    6.5157   43.0067   36.1417 H   0  0  0  0  0  0  0  0  0  0  0  0
    8.4916   45.2957   37.6030 H   0  0  0  0  0  0  0  0  0  0  0  0
    3.9636   47.2452   37.0826 H   0  0  0  0  0  0  0  0  0  0  0  0
    7.8490   47.2978   38.8730 H   0  0  0  0  0  0  0  0  0  0  0  0
    5.5973   48.2843   38.5982 H   0  0  0  0  0  0  0  0  0  0  0  0
   11.3845   41.5501   31.4744 H   0  0  0  0  0  0  0  0  0  0  0  0
    9.8262   40.7183   31.7577 H   0  0  0  0  0  0  0  0  0  0  0  0
   11.7290   39.5289   30.3501 H   0  0  0  0  0  0  0  0  0  0  0  0
   10.1140   38.2720   32.6378 H   0  0  0  0  0  0  0  0  0  0  0  0
   13.6726   37.4630   31.2239 H   0  0  0  0  0  0  0  0  0  0  0  0
   10.0536   38.1085   29.7638 H   0  0  0  0  0  0  0  0  0  0  0  0
   11.2648   36.3134   32.5107 H   0  0  0  0  0  0  0  0  0  0  0  0
   12.1545   35.5030   30.6313 H   0  0  0  0  0  0  0  0  0  0  0  0
   12.3362   38.3585   34.7450 H   0  0  0  0  0  0  0  0  0  0  0  0
   16.7573   34.1787   32.4618 H   0  0  0  0  0  0  0  0  0  0  0  0
   16.6363   34.5314   37.1416 H   0  0  0  0  0  0  0  0  0  0  0  0
   15.3531   35.7353   37.5138 H   0  0  0  0  0  0  0  0  0  0  0  0
  1  2  2  0
  1  3  1  0
  3  4  1  0
  4  5  1  0
  6  1  1  0
  7  6  1  0
  6  8  1  0
  8  9  1  0
  9 10  1  0
  9 11  2  0
 10 12  1  0
 12 13  1  0
 13 14  2  0
 15 13  1  0
 14 16  1  0
 14 17  1  0
 18 15  2  0
 16 19  1  0
 16 20  2  0
 17 21  2  0
 21 18  1  0
  4 22  2  0
  4 23  1  0
 24 23  1  0
 24 25  1  0
 25 26  1  0
 25 27  1  0
 26 28  1  0
 27 29  1  0
 27 30  1  0
 30 28  1  0
 28 31  1  0
 30 32  1  0
 33 31  1  0
 34 31  1  0
 35 33  2  0
 33 36  1  0
 37 34  2  0
 38 35  1  0
 36 39  2  0
 36 37  1  0
 40 38  2  0
 40 39  1  0
 39 41  1  0
  6 42  1  6
  7 43  1  0
  7 44  1  0
  8 45  1  0
  8 46  1  0
 12 47  1  0
 12 48  1  0
 15 49  1  0
 17 50  1  0
 18 51  1  0
 21 52  1  0
 24 53  1  0
 24 54  1  0
 25 55  1  0
 27 56  1  0
 28 57  1  0
 29 58  1  0
 30 59  1  0
 32 60  1  0
 34 61  1  0
 38 62  1  0
 41 63  1  0
 41 64  1  0
M  CHG  3   5  -1  16   1  19  -1
M  END
>  <EmbedRMS>  (710) 
0.08884923532766627

$$$$

     RDKit          3D

 64 67  0  0  0  0  0  0  0  0999 V2000
   10.2829   43.7755   33.8077 C   0  0  0  0  0  0  0  0  0  0  0  0
   11.4085   43.5913   34.3579 O   0  0  0  0  0  0  0  0  0  0  0  0
    9.3666   42.7319   33.7014 O   0  0  0  0  0  0  0  0  0  0  0  0
    9.8863   41.2345   34.2833 P   0  0  0  0  0  5  0  0  0  0  0  0
   10.3676   41.4692   35.8737 O   0  0  0  0  0  1  0  0  0  0  0  0
    9.9543   45.1112   33.2421 C   0  0  2  0  0  0  0  0  0  0  0  0
   11.0720   46.0273   33.4855 N   0  0  0  0  0  0  0  0  0  0  0  0
    8.6395   45.6441   33.8489 C   0  0  0  0  0  0  0  0  0  0  0  0
    8.2198   46.9279   33.2037 C   0  0  0  0  0  0  0  0  0  0  0  0
    7.7072   46.9057   31.9021 O   0  0  0  0  0  0  0  0  0  0  0  0
    8.3541   48.0168   33.8259 O   0  0  0  0  0  0  0  0  0  0  0  0
    7.2512   48.0734   31.2217 C   0  0  0  0  0  0  0  0  0  0  0  0
    5.9796   48.5989   31.8477 C   0  0  0  0  0  0  0  0  0  0  0  0
    4.8437   47.7724   32.0628 C   0  0  0  0  0  0  0  0  0  0  0  0
    5.9398   49.9425   32.2637 C   0  0  0  0  0  0  0  0  0  0  0  0
    4.8147   46.3962   31.6422 N   0  0  0  0  0  4  0  0  0  0  0  0
    3.7207   48.3101   32.7184 C   0  0  0  0  0  0  0  0  0  0  0  0
    4.8095   50.4592   32.8981 C   0  0  0  0  0  0  0  0  0  0  0  0
    5.3526   46.0195   30.4337 O   0  0  0  0  0  1  0  0  0  0  0  0
    4.1602   45.5565   32.2944 O   0  0  0  0  0  0  0  0  0  0  0  0
    3.7042   49.6434   33.1294 C   0  0  0  0  0  0  0  0  0  0  0  0
    8.8086   40.1917   34.2083 O   0  0  0  0  0  0  0  0  0  0  0  0
   11.2376   40.7913   33.3656 O   0  0  0  0  0  0  0  0  0  0  0  0
   10.9141   40.6851   31.9930 C   0  0  0  0  0  0  0  0  0  0  0  0
   11.5165   39.3773   31.4394 C   0  0  0  0  0  0  0  0  0  0  0  0
   12.7471   39.0855   32.0740 O   0  0  0  0  0  0  0  0  0  0  0  0
   10.6047   38.1867   31.6670 C   0  0  0  0  0  0  0  0  0  0  0  0
   12.9345   37.6791   32.0282 C   0  0  0  0  0  0  0  0  0  0  0  0
    9.6378   38.0917   30.6489 O   0  0  0  0  0  0  0  0  0  0  0  0
   11.5761   37.0129   31.7057 C   0  0  0  0  0  0  0  0  0  0  0  0
   13.4909   37.2177   33.3233 N   0  0  0  0  0  0  0  0  0  0  0  0
   11.6234   36.3371   30.4684 O   0  0  0  0  0  0  0  0  0  0  0  0
   14.4765   36.3272   33.5727 C   0  0  0  0  0  0  0  0  0  0  0  0
   13.1182   37.6315   34.5685 C   0  0  0  0  0  0  0  0  0  0  0  0
   15.2066   35.6137   32.6739 N   0  0  0  0  0  0  0  0  0  0  0  0
   14.6736   36.2276   34.9182 C   0  0  0  0  0  0  0  0  0  0  0  0
   13.8227   37.0457   35.5781 N   0  0  0  0  0  0  0  0  0  0  0  0
   16.1638   34.7593   33.1547 C   0  0  0  0  0  0  0  0  0  0  0  0
   15.6517   35.3493   35.4131 C   0  0  0  0  0  0  0  0  0  0  0  0
   16.3793   34.6309   34.5042 N   0  0  0  0  0  0  0  0  0  0  0  0
   15.9003   35.1934   36.8089 N   0  0  0  0  0  0  0  0  0  0  0  0
    9.8250   44.9835   32.1440 H   0  0  0  0  0  0  0  0  0  0  0  0
   11.0777   46.3203   34.4904 H   0  0  0  0  0  0  0  0  0  0  0  0
   10.9379   46.8884   32.9075 H   0  0  0  0  0  0  0  0  0  0  0  0
    7.8256   44.9034   33.6913 H   0  0  0  0  0  0  0  0  0  0  0  0
    8.7531   45.7893   34.9461 H   0  0  0  0  0  0  0  0  0  0  0  0
    7.0616   47.8278   30.1570 H   0  0  0  0  0  0  0  0  0  0  0  0
    8.0594   48.8376   31.2294 H   0  0  0  0  0  0  0  0  0  0  0  0
    6.7918   50.5929   32.1084 H   0  0  0  0  0  0  0  0  0  0  0  0
    2.8462   47.6973   32.8976 H   0  0  0  0  0  0  0  0  0  0  0  0
    4.7937   51.4934   33.2169 H   0  0  0  0  0  0  0  0  0  0  0  0
    2.8302   50.0456   33.6255 H   0  0  0  0  0  0  0  0  0  0  0  0
   11.3866   41.5416   31.4662 H   0  0  0  0  0  0  0  0  0  0  0  0
    9.8240   40.7211   31.7569 H   0  0  0  0  0  0  0  0  0  0  0  0
   11.6986   39.5012   30.3468 H   0  0  0  0  0  0  0  0  0  0  0  0
   10.1095   38.2771   32.6629 H   0  0  0  0  0  0  0  0  0  0  0  0
   13.6672   37.4546   31.2213 H   0  0  0  0  0  0  0  0  0  0  0  0
    8.9779   37.4157   30.9534 H   0  0  0  0  0  0  0  0  0  0  0  0
   11.2861   36.3041   32.5177 H   0  0  0  0  0  0  0  0  0  0  0  0
   10.8690   35.6919   30.4657 H   0  0  0  0  0  0  0  0  0  0  0  0
   12.3356   38.3587   34.7440 H   0  0  0  0  0  0  0  0  0  0  0  0
   16.7572   34.1786   32.4620 H   0  0  0  0  0  0  0  0  0  0  0  0
   16.6361   34.5315   37.1415 H   0  0  0  0  0  0  0  0  0  0  0  0
   15.3530   35.7358   37.5138 H   0  0  0  0  0  0  0  0  0  0  0  0
  1  2  2  0
  1  3  1  0
  3  4  1  0
  4  5  1  0
  6  1  1  0
  7  6  1  0
  6  8  1  0
  8  9  1  0
  9 10  1  0
  9 11  2  0
 10 12  1  0
 12 13  1  0
 13 14  2  0
 15 13  1  0
 14 16  1  0
 14 17  1  0
 18 15  2  0
 16 19  1  0
 16 20  2  0
 17 21  2  0
 21 18  1  0
  4 22  2  0
  4 23  1  0
 24 23  1  0
 24 25  1  0
 25 26  1  0
 25 27  1  0
 26 28  1  0
 27 29  1  0
 27 30  1  0
 30 28  1  0
 28 31  1  0
 30 32  1  0
 33 31  1  0
 34 31  1  0
 35 33  2  0
 33 36  1  0
 37 34  2  0
 38 35  1  0
 36 39  2  0
 36 37  1  0
 40 38  2  0
 40 39  1  0
 39 41  1  0
  6 42  1  6
  7 43  1  0
  7 44  1  0
  8 45  1  0
  8 46  1  0
 12 47  1  0
 12 48  1  0
 15 49  1  0
 17 50  1  0
 18 51  1  0
 21 52  1  0
 24 53  1  0
 24 54  1  0
 25 55  1  0
 27 56  1  0
 28 57  1  0
 29 58  1  0
 30 59  1  0
 32 60  1  0
 34 61  1  0
 38 62  1  0
 41 63  1  0
 41 64  1  0
M  CHG  3   5  -1  16   1  19  -1
M  END
>  <EmbedRMS>  (711) 
0.08871548877873078

$$$$

     RDKit          3D

 64 67  0  0  0  0  0  0  0  0999 V2000
   10.2830   43.7740   33.8118 C   0  0  0  0  0  0  0  0  0  0  0  0
   11.4084   43.5889   34.3619 O   0  0  0  0  0  0  0  0  0  0  0  0
    9.3654   42.7324   33.7048 O   0  0  0  0  0  0  0  0  0  0  0  0
    9.8851   41.2341   34.2837 P   0  0  0  0  0  5  0  0  0  0  0  0
   10.3689   41.4656   35.8721 O   0  0  0  0  0  1  0  0  0  0  0  0
    9.9614   45.1084   33.2373 C   0  0  2  0  0  0  0  0  0  0  0  0
   11.0678   46.0368   33.4827 N   0  0  0  0  0  0  0  0  0  0  0  0
    8.6148   45.6592   33.7590 C   0  0  0  0  0  0  0  0  0  0  0  0
    8.6058   45.8766   35.2428 C   0  0  0  0  0  0  0  0  0  0  0  0
    8.3460   44.7975   36.0961 O   0  0  0  0  0  0  0  0  0  0  0  0
    8.8452   47.0251   35.7059 O   0  0  0  0  0  0  0  0  0  0  0  0
    8.4881   44.8555   37.5151 C   0  0  0  0  0  0  0  0  0  0  0  0
    9.8549   44.3502   37.9169 C   0  0  0  0  0  0  0  0  0  0  0  0
   10.0501   43.0905   38.5411 C   0  0  0  0  0  0  0  0  0  0  0  0
   10.9795   45.1233   37.5756 C   0  0  0  0  0  0  0  0  0  0  0  0
    8.9453   42.2800   38.9655 N   0  0  0  0  0  4  0  0  0  0  0  0
   11.3578   42.6261   38.7643 C   0  0  0  0  0  0  0  0  0  0  0  0
   12.2706   44.6515   37.8164 C   0  0  0  0  0  0  0  0  0  0  0  0
    8.0269   42.7906   39.8535 O   0  0  0  0  0  1  0  0  0  0  0  0
    8.9604   41.0498   38.7545 O   0  0  0  0  0  0  0  0  0  0  0  0
   12.4597   43.4014   38.4022 C   0  0  0  0  0  0  0  0  0  0  0  0
    8.8077   40.1912   34.2085 O   0  0  0  0  0  0  0  0  0  0  0  0
   11.2366   40.7915   33.3668 O   0  0  0  0  0  0  0  0  0  0  0  0
   10.9145   40.6884   31.9941 C   0  0  0  0  0  0  0  0  0  0  0  0
   11.5258   39.3871   31.4364 C   0  0  0  0  0  0  0  0  0  0  0  0
   12.7488   39.0895   32.0822 O   0  0  0  0  0  0  0  0  0  0  0  0
   10.6122   38.1893   31.6461 C   0  0  0  0  0  0  0  0  0  0  0  0
   12.9372   37.6829   32.0302 C   0  0  0  0  0  0  0  0  0  0  0  0
    9.6149   38.0837   30.6538 O   0  0  0  0  0  0  0  0  0  0  0  0
   11.5793   37.0137   31.7014 C   0  0  0  0  0  0  0  0  0  0  0  0
   13.4906   37.2171   33.3243 N   0  0  0  0  0  0  0  0  0  0  0  0
   11.6217   36.3253   30.4726 O   0  0  0  0  0  0  0  0  0  0  0  0
   14.4763   36.3267   33.5731 C   0  0  0  0  0  0  0  0  0  0  0  0
   13.1182   37.6310   34.5695 C   0  0  0  0  0  0  0  0  0  0  0  0
   15.2065   35.6138   32.6740 N   0  0  0  0  0  0  0  0  0  0  0  0
   14.6735   36.2271   34.9185 C   0  0  0  0  0  0  0  0  0  0  0  0
   13.8229   37.0452   35.5788 N   0  0  0  0  0  0  0  0  0  0  0  0
   16.1638   34.7594   33.1547 C   0  0  0  0  0  0  0  0  0  0  0  0
   15.6518   35.3490   35.4132 C   0  0  0  0  0  0  0  0  0  0  0  0
   16.3794   34.6308   34.5042 N   0  0  0  0  0  0  0  0  0  0  0  0
   15.9005   35.1931   36.8090 N   0  0  0  0  0  0  0  0  0  0  0  0
    9.8655   44.9719   32.1378 H   0  0  0  0  0  0  0  0  0  0  0  0
   11.1599   46.2274   34.5068 H   0  0  0  0  0  0  0  0  0  0  0  0
   10.8522   46.9466   33.0138 H   0  0  0  0  0  0  0  0  0  0  0  0
    7.7974   44.9537   33.4953 H   0  0  0  0  0  0  0  0  0  0  0  0
    8.3887   46.6187   33.2447 H   0  0  0  0  0  0  0  0  0  0  0  0
    8.3384   45.8903   37.8928 H   0  0  0  0  0  0  0  0  0  0  0  0
    7.6769   44.2470   37.9536 H   0  0  0  0  0  0  0  0  0  0  0  0
   10.8597   46.0913   37.1084 H   0  0  0  0  0  0  0  0  0  0  0  0
   11.5218   41.6648   39.2350 H   0  0  0  0  0  0  0  0  0  0  0  0
   13.1264   45.2538   37.5403 H   0  0  0  0  0  0  0  0  0  0  0  0
   13.4620   43.0354   38.5837 H   0  0  0  0  0  0  0  0  0  0  0  0
    9.8242   40.7176   31.7578 H   0  0  0  0  0  0  0  0  0  0  0  0
   11.3811   41.5504   31.4711 H   0  0  0  0  0  0  0  0  0  0  0  0
   11.7290   39.5284   30.3503 H   0  0  0  0  0  0  0  0  0  0  0  0
   10.1138   38.2719   32.6380 H   0  0  0  0  0  0  0  0  0  0  0  0
   13.6725   37.4641   31.2241 H   0  0  0  0  0  0  0  0  0  0  0  0
   10.0534   38.1084   29.7639 H   0  0  0  0  0  0  0  0  0  0  0  0
   11.2646   36.3135   32.5108 H   0  0  0  0  0  0  0  0  0  0  0  0
   12.1551   35.5033   30.6317 H   0  0  0  0  0  0  0  0  0  0  0  0
   12.3363   38.3589   34.7452 H   0  0  0  0  0  0  0  0  0  0  0  0
   16.7572   34.1789   32.4619 H   0  0  0  0  0  0  0  0  0  0  0  0
   15.3533   35.7354   37.5139 H   0  0  0  0  0  0  0  0  0  0  0  0
   16.6366   34.5314   37.1415 H   0  0  0  0  0  0  0  0  0  0  0  0
  1  2  2  0
  1  3  1  0
  3  4  1  0
  4  5  1  0
  6  1  1  0
  7  6  1  0
  6  8  1  0
  8  9  1  0
  9 10  1  0
  9 11  2  0
 10 12  1  0
 12 13  1  0
 13 14  2  0
 15 13  1  0
 14 16  1  0
 14 17  1  0
 18 15  2  0
 16 19  1  0
 16 20  2  0
 17 21  2  0
 21 18  1  0
  4 22  2  0
  4 23  1  0
 24 23  1  0
 24 25  1  0
 25 26  1  0
 25 27  1  0
 26 28  1  0
 27 29  1  0
 27 30  1  0
 30 28  1  0
 28 31  1  0
 30 32  1  0
 33 31  1  0
 34 31  1  0
 35 33  2  0
 33 36  1  0
 37 34  2  0
 38 35  1  0
 36 39  2  0
 36 37  1  0
 40 38  2  0
 40 39  1  0
 39 41  1  0
  6 42  1  6
  7 43  1  0
  7 44  1  0
  8 45  1  0
  8 46  1  0
 12 47  1  0
 12 48  1  0
 15 49  1  0
 17 50  1  0
 18 51  1  0
 21 52  1  0
 24 53  1  0
 24 54  1  0
 25 55  1  0
 27 56  1  0
 28 57  1  0
 29 58  1  0
 30 59  1  0
 32 60  1  0
 34 61  1  0
 38 62  1  0
 41 63  1  0
 41 64  1  0
M  CHG  3   5  -1  16   1  19  -1
M  END
>  <EmbedRMS>  (712) 
0.08775737570520128

$$$$
