
     RDKit          3D

 62 65  0  0  0  0  0  0  0  0999 V2000
   10.2850   43.7725   33.8067 C   0  0  0  0  0  0  0  0  0  0  0  0
   11.4105   43.5874   34.3563 O   0  0  0  0  0  0  0  0  0  0  0  0
    9.3667   42.7311   33.7012 O   0  0  0  0  0  0  0  0  0  0  0  0
    9.8856   41.2339   34.2841 P   0  0  0  0  0  5  0  0  0  0  0  0
   10.3657   41.4695   35.8747 O   0  0  0  0  0  1  0  0  0  0  0  0
    9.9582   45.1107   33.2439 C   0  0  2  0  0  0  0  0  0  0  0  0
   11.0675   46.0366   33.4847 N   0  0  0  0  0  0  0  0  0  0  0  0
    8.6199   45.6579   33.7901 C   0  0  0  0  0  0  0  0  0  0  0  0
    8.6116   45.8091   35.2827 C   0  0  0  0  0  0  0  0  0  0  0  0
    8.9583   47.0396   35.8519 O   0  0  0  0  0  0  0  0  0  0  0  0
    8.3209   44.8209   36.0109 O   0  0  0  0  0  0  0  0  0  0  0  0
    8.9759   47.2739   37.2582 C   0  0  0  0  0  0  0  0  0  0  0  0
    7.5734   47.3263   37.7998 C   0  0  0  0  0  0  0  0  0  0  0  0
    7.0926   46.3113   38.6440 C   0  0  0  0  0  0  0  0  0  0  0  0
    6.7224   48.3837   37.4396 C   0  0  0  0  0  0  0  0  0  0  0  0
    5.7808   46.3602   39.1263 C   0  0  0  0  0  0  0  0  0  0  0  0
    5.4114   48.4289   37.9242 C   0  0  0  0  0  0  0  0  0  0  0  0
    4.9412   47.4183   38.7674 C   0  0  0  0  0  0  0  0  0  0  0  0
    8.8082   40.1910   34.2080 O   0  0  0  0  0  0  0  0  0  0  0  0
   11.2384   40.7904   33.3687 O   0  0  0  0  0  0  0  0  0  0  0  0
   10.9193   40.6895   31.9950 C   0  0  0  0  0  0  0  0  0  0  0  0
   11.5170   39.3801   31.4398 C   0  0  0  0  0  0  0  0  0  0  0  0
   12.7478   39.0862   32.0734 O   0  0  0  0  0  0  0  0  0  0  0  0
   10.6031   38.1891   31.6667 C   0  0  0  0  0  0  0  0  0  0  0  0
   12.9335   37.6797   32.0280 C   0  0  0  0  0  0  0  0  0  0  0  0
    9.6397   38.0777   30.6456 O   0  0  0  0  0  0  0  0  0  0  0  0
   11.5739   37.0154   31.7057 C   0  0  0  0  0  0  0  0  0  0  0  0
   13.4903   37.2178   33.3231 N   0  0  0  0  0  0  0  0  0  0  0  0
   11.6211   36.3376   30.4695 O   0  0  0  0  0  0  0  0  0  0  0  0
   14.4761   36.3273   33.5725 C   0  0  0  0  0  0  0  0  0  0  0  0
   13.1179   37.6316   34.5684 C   0  0  0  0  0  0  0  0  0  0  0  0
   15.2063   35.6139   32.6737 N   0  0  0  0  0  0  0  0  0  0  0  0
   14.6733   36.2277   34.9180 C   0  0  0  0  0  0  0  0  0  0  0  0
   13.8225   37.0459   35.5779 N   0  0  0  0  0  0  0  0  0  0  0  0
   16.1636   34.7594   33.1546 C   0  0  0  0  0  0  0  0  0  0  0  0
   15.6515   35.3494   35.4129 C   0  0  0  0  0  0  0  0  0  0  0  0
   16.3791   34.6311   34.5041 N   0  0  0  0  0  0  0  0  0  0  0  0
   15.9001   35.1935   36.8088 N   0  0  0  0  0  0  0  0  0  0  0  0
    9.8484   44.9837   32.1446 H   0  0  0  0  0  0  0  0  0  0  0  0
   11.1597   46.2307   34.5084 H   0  0  0  0  0  0  0  0  0  0  0  0
   10.8536   46.9454   33.0132 H   0  0  0  0  0  0  0  0  0  0  0  0
    8.4106   46.6457   33.3260 H   0  0  0  0  0  0  0  0  0  0  0  0
    7.7916   44.9798   33.4888 H   0  0  0  0  0  0  0  0  0  0  0  0
    9.5824   46.4913   37.7648 H   0  0  0  0  0  0  0  0  0  0  0  0
    9.4720   48.2489   37.4491 H   0  0  0  0  0  0  0  0  0  0  0  0
    7.7300   45.4827   38.9266 H   0  0  0  0  0  0  0  0  0  0  0  0
    7.0744   49.1699   36.7830 H   0  0  0  0  0  0  0  0  0  0  0  0
    5.4146   45.5766   39.7770 H   0  0  0  0  0  0  0  0  0  0  0  0
    4.7595   49.2464   37.6446 H   0  0  0  0  0  0  0  0  0  0  0  0
    3.9260   47.4541   39.1411 H   0  0  0  0  0  0  0  0  0  0  0  0
   11.4008   41.5437   31.4729 H   0  0  0  0  0  0  0  0  0  0  0  0
    9.8314   40.7396   31.7550 H   0  0  0  0  0  0  0  0  0  0  0  0
   11.6982   39.5043   30.3472 H   0  0  0  0  0  0  0  0  0  0  0  0
   10.1089   38.2631   32.6650 H   0  0  0  0  0  0  0  0  0  0  0  0
   13.6656   37.4541   31.2207 H   0  0  0  0  0  0  0  0  0  0  0  0
    8.8965   38.6899   30.8852 H   0  0  0  0  0  0  0  0  0  0  0  0
   11.2846   36.3060   32.5175 H   0  0  0  0  0  0  0  0  0  0  0  0
   10.8523   35.7095   30.4590 H   0  0  0  0  0  0  0  0  0  0  0  0
   12.3353   38.3588   34.7440 H   0  0  0  0  0  0  0  0  0  0  0  0
   16.7570   34.1788   32.4619 H   0  0  0  0  0  0  0  0  0  0  0  0
   16.6360   34.5317   37.1413 H   0  0  0  0  0  0  0  0  0  0  0  0
   15.3529   35.7359   37.5136 H   0  0  0  0  0  0  0  0  0  0  0  0
  1  2  2  0
  1  3  1  0
  3  4  1  0
  4  5  1  0
  6  1  1  0
  7  6  1  0
  6  8  1  0
  8  9  1  0
  9 10  1  0
  9 11  2  0
 10 12  1  0
 12 13  1  0
 13 14  2  0
 15 13  1  0
 14 16  1  0
 17 15  2  0
 16 18  2  0
 18 17  1  0
  4 19  2  0
  4 20  1  0
 21 20  1  0
 21 22  1  0
 22 23  1  0
 22 24  1  0
 23 25  1  0
 24 26  1  0
 24 27  1  0
 27 25  1  0
 25 28  1  0
 27 29  1  0
 30 28  1  0
 31 28  1  0
 32 30  2  0
 30 33  1  0
 34 31  2  0
 35 32  1  0
 33 36  2  0
 33 34  1  0
 37 35  2  0
 37 36  1  0
 36 38  1  0
  6 39  1  6
  7 40  1  0
  7 41  1  0
  8 42  1  0
  8 43  1  0
 12 44  1  0
 12 45  1  0
 14 46  1  0
 15 47  1  0
 16 48  1  0
 17 49  1  0
 18 50  1  0
 21 51  1  0
 21 52  1  0
 22 53  1  0
 24 54  1  0
 25 55  1  0
 26 56  1  0
 27 57  1  0
 29 58  1  0
 31 59  1  0
 35 60  1  0
 38 61  1  0
 38 62  1  0
M  CHG  1   5  -1
M  END
>  <EmbedRMS>  (1) 
0.08932929036969574

$$$$

     RDKit          3D

 62 65  0  0  0  0  0  0  0  0999 V2000
   10.2865   43.7709   33.8017 C   0  0  0  0  0  0  0  0  0  0  0  0
   11.4091   43.5868   34.3579 O   0  0  0  0  0  0  0  0  0  0  0  0
    9.3669   42.7309   33.6986 O   0  0  0  0  0  0  0  0  0  0  0  0
    9.8849   41.2346   34.2847 P   0  0  0  0  0  5  0  0  0  0  0  0
   10.3654   41.4710   35.8749 O   0  0  0  0  0  1  0  0  0  0  0  0
    9.9516   45.1163   33.2556 C   0  0  2  0  0  0  0  0  0  0  0  0
   11.0720   46.0323   33.4788 N   0  0  0  0  0  0  0  0  0  0  0  0
    8.6616   45.6676   33.8997 C   0  0  0  0  0  0  0  0  0  0  0  0
    8.7698   45.7518   35.3932 C   0  0  0  0  0  0  0  0  0  0  0  0
    9.5774   46.7371   35.9707 O   0  0  0  0  0  0  0  0  0  0  0  0
    8.1779   44.9012   36.1125 O   0  0  0  0  0  0  0  0  0  0  0  0
    9.9952   46.6976   37.3326 C   0  0  0  0  0  0  0  0  0  0  0  0
   10.9828   45.5801   37.5328 C   0  0  0  0  0  0  0  0  0  0  0  0
   12.2595   45.6628   36.9536 C   0  0  0  0  0  0  0  0  0  0  0  0
   10.6206   44.4213   38.2398 C   0  0  0  0  0  0  0  0  0  0  0  0
   13.1644   44.6055   37.0895 C   0  0  0  0  0  0  0  0  0  0  0  0
   11.5290   43.3667   38.3743 C   0  0  0  0  0  0  0  0  0  0  0  0
   12.7994   43.4582   37.7992 C   0  0  0  0  0  0  0  0  0  0  0  0
    8.8077   40.1914   34.2093 O   0  0  0  0  0  0  0  0  0  0  0  0
   11.2368   40.7903   33.3694 O   0  0  0  0  0  0  0  0  0  0  0  0
   10.9156   40.6898   31.9963 C   0  0  0  0  0  0  0  0  0  0  0  0
   11.5270   39.3899   31.4376 C   0  0  0  0  0  0  0  0  0  0  0  0
   12.7508   39.0917   32.0840 O   0  0  0  0  0  0  0  0  0  0  0  0
   10.6122   38.1917   31.6453 C   0  0  0  0  0  0  0  0  0  0  0  0
   12.9429   37.6853   32.0296 C   0  0  0  0  0  0  0  0  0  0  0  0
    9.6070   38.0859   30.6603 O   0  0  0  0  0  0  0  0  0  0  0  0
   11.5845   37.0187   31.6880 C   0  0  0  0  0  0  0  0  0  0  0  0
   13.4899   37.2164   33.3250 N   0  0  0  0  0  0  0  0  0  0  0  0
   11.6201   36.3063   30.4693 O   0  0  0  0  0  0  0  0  0  0  0  0
   14.4758   36.3264   33.5739 C   0  0  0  0  0  0  0  0  0  0  0  0
   13.1176   37.6309   34.5700 C   0  0  0  0  0  0  0  0  0  0  0  0
   15.2065   35.6139   32.6746 N   0  0  0  0  0  0  0  0  0  0  0  0
   14.6731   36.2268   34.9191 C   0  0  0  0  0  0  0  0  0  0  0  0
   13.8225   37.0451   35.5793 N   0  0  0  0  0  0  0  0  0  0  0  0
   16.1640   34.7596   33.1551 C   0  0  0  0  0  0  0  0  0  0  0  0
   15.6517   35.3489   35.4136 C   0  0  0  0  0  0  0  0  0  0  0  0
   16.3795   34.6310   34.5046 N   0  0  0  0  0  0  0  0  0  0  0  0
   15.9006   35.1931   36.8094 N   0  0  0  0  0  0  0  0  0  0  0  0
    9.7783   45.0127   32.1608 H   0  0  0  0  0  0  0  0  0  0  0  0
   10.8146   46.9709   33.0954 H   0  0  0  0  0  0  0  0  0  0  0  0
   11.8840   45.7085   32.9032 H   0  0  0  0  0  0  0  0  0  0  0  0
    7.8020   45.0180   33.6230 H   0  0  0  0  0  0  0  0  0  0  0  0
    8.4454   46.6803   33.4968 H   0  0  0  0  0  0  0  0  0  0  0  0
   10.4836   47.6628   37.5835 H   0  0  0  0  0  0  0  0  0  0  0  0
    9.1121   46.5894   37.9999 H   0  0  0  0  0  0  0  0  0  0  0  0
   12.5483   46.5410   36.3894 H   0  0  0  0  0  0  0  0  0  0  0  0
    9.6352   44.3306   38.6794 H   0  0  0  0  0  0  0  0  0  0  0  0
   14.1461   44.6729   36.6390 H   0  0  0  0  0  0  0  0  0  0  0  0
   11.2453   42.4751   38.9184 H   0  0  0  0  0  0  0  0  0  0  0  0
   13.4992   42.6388   37.9000 H   0  0  0  0  0  0  0  0  0  0  0  0
    9.8255   40.7192   31.7590 H   0  0  0  0  0  0  0  0  0  0  0  0
   11.3827   41.5528   31.4752 H   0  0  0  0  0  0  0  0  0  0  0  0
   11.7318   39.5341   30.3522 H   0  0  0  0  0  0  0  0  0  0  0  0
   10.1214   38.2682   32.6413 H   0  0  0  0  0  0  0  0  0  0  0  0
   13.6882   37.4709   31.2320 H   0  0  0  0  0  0  0  0  0  0  0  0
   10.0257   38.1753   29.7657 H   0  0  0  0  0  0  0  0  0  0  0  0
   11.2796   36.3124   32.4916 H   0  0  0  0  0  0  0  0  0  0  0  0
   11.9872   36.9100   29.7715 H   0  0  0  0  0  0  0  0  0  0  0  0
   12.3367   38.3599   34.7454 H   0  0  0  0  0  0  0  0  0  0  0  0
   16.7576   34.1795   32.4622 H   0  0  0  0  0  0  0  0  0  0  0  0
   15.3532   35.7352   37.5144 H   0  0  0  0  0  0  0  0  0  0  0  0
   16.6368   34.5316   37.1418 H   0  0  0  0  0  0  0  0  0  0  0  0
  1  2  2  0
  1  3  1  0
  3  4  1  0
  4  5  1  0
  6  1  1  0
  7  6  1  0
  6  8  1  0
  8  9  1  0
  9 10  1  0
  9 11  2  0
 10 12  1  0
 12 13  1  0
 13 14  2  0
 15 13  1  0
 14 16  1  0
 17 15  2  0
 16 18  2  0
 18 17  1  0
  4 19  2  0
  4 20  1  0
 21 20  1  0
 21 22  1  0
 22 23  1  0
 22 24  1  0
 23 25  1  0
 24 26  1  0
 24 27  1  0
 27 25  1  0
 25 28  1  0
 27 29  1  0
 30 28  1  0
 31 28  1  0
 32 30  2  0
 30 33  1  0
 34 31  2  0
 35 32  1  0
 33 36  2  0
 33 34  1  0
 37 35  2  0
 37 36  1  0
 36 38  1  0
  6 39  1  6
  7 40  1  0
  7 41  1  0
  8 42  1  0
  8 43  1  0
 12 44  1  0
 12 45  1  0
 14 46  1  0
 15 47  1  0
 16 48  1  0
 17 49  1  0
 18 50  1  0
 21 51  1  0
 21 52  1  0
 22 53  1  0
 24 54  1  0
 25 55  1  0
 26 56  1  0
 27 57  1  0
 29 58  1  0
 31 59  1  0
 35 60  1  0
 38 61  1  0
 38 62  1  0
M  CHG  1   5  -1
M  END
>  <EmbedRMS>  (2) 
0.0868971952912757

$$$$

     RDKit          3D

 62 65  0  0  0  0  0  0  0  0999 V2000
   10.2862   43.7711   33.8101 C   0  0  0  0  0  0  0  0  0  0  0  0
   11.4100   43.5818   34.3617 O   0  0  0  0  0  0  0  0  0  0  0  0
    9.3666   42.7311   33.7023 O   0  0  0  0  0  0  0  0  0  0  0  0
    9.8845   41.2331   34.2841 P   0  0  0  0  0  5  0  0  0  0  0  0
   10.3659   41.4675   35.8745 O   0  0  0  0  0  1  0  0  0  0  0  0
    9.9610   45.1123   33.2469 C   0  0  2  0  0  0  0  0  0  0  0  0
   11.0652   46.0482   33.4748 N   0  0  0  0  0  0  0  0  0  0  0  0
    8.6649   45.6573   33.8695 C   0  0  0  0  0  0  0  0  0  0  0  0
    8.2711   46.9570   33.2392 C   0  0  0  0  0  0  0  0  0  0  0  0
    7.6714   46.9527   31.9770 O   0  0  0  0  0  0  0  0  0  0  0  0
    8.5137   48.0428   33.8337 O   0  0  0  0  0  0  0  0  0  0  0  0
    7.3003   48.1473   31.2986 C   0  0  0  0  0  0  0  0  0  0  0  0
    6.7028   47.7939   29.9686 C   0  0  0  0  0  0  0  0  0  0  0  0
    5.3206   47.5742   29.8479 C   0  0  0  0  0  0  0  0  0  0  0  0
    7.5300   47.6116   28.8480 C   0  0  0  0  0  0  0  0  0  0  0  0
    4.7715   47.2065   28.6153 C   0  0  0  0  0  0  0  0  0  0  0  0
    6.9769   47.2437   27.6173 C   0  0  0  0  0  0  0  0  0  0  0  0
    5.5985   47.0438   27.5004 C   0  0  0  0  0  0  0  0  0  0  0  0
    8.8069   40.1905   34.2081 O   0  0  0  0  0  0  0  0  0  0  0  0
   11.2363   40.7907   33.3671 O   0  0  0  0  0  0  0  0  0  0  0  0
   10.9133   40.6860   31.9945 C   0  0  0  0  0  0  0  0  0  0  0  0
   11.5168   39.3797   31.4409 C   0  0  0  0  0  0  0  0  0  0  0  0
   12.7486   39.0887   32.0762 O   0  0  0  0  0  0  0  0  0  0  0  0
   10.6051   38.1876   31.6659 C   0  0  0  0  0  0  0  0  0  0  0  0
   12.9411   37.6829   32.0278 C   0  0  0  0  0  0  0  0  0  0  0  0
    9.6358   38.0930   30.6502 O   0  0  0  0  0  0  0  0  0  0  0  0
   11.5827   37.0179   31.6936 C   0  0  0  0  0  0  0  0  0  0  0  0
   13.4909   37.2177   33.3239 N   0  0  0  0  0  0  0  0  0  0  0  0
   11.6141   36.3180   30.4675 O   0  0  0  0  0  0  0  0  0  0  0  0
   14.4762   36.3270   33.5733 C   0  0  0  0  0  0  0  0  0  0  0  0
   13.1179   37.6316   34.5689 C   0  0  0  0  0  0  0  0  0  0  0  0
   15.2067   35.6140   32.6743 N   0  0  0  0  0  0  0  0  0  0  0  0
   14.6731   36.2273   34.9186 C   0  0  0  0  0  0  0  0  0  0  0  0
   13.8223   37.0456   35.5785 N   0  0  0  0  0  0  0  0  0  0  0  0
   16.1639   34.7595   33.1550 C   0  0  0  0  0  0  0  0  0  0  0  0
   15.6515   35.3491   35.4134 C   0  0  0  0  0  0  0  0  0  0  0  0
   16.3792   34.6310   34.5045 N   0  0  0  0  0  0  0  0  0  0  0  0
   15.9002   35.1933   36.8092 N   0  0  0  0  0  0  0  0  0  0  0  0
    9.8115   44.9941   32.1505 H   0  0  0  0  0  0  0  0  0  0  0  0
   11.9219   45.7026   32.9830 H   0  0  0  0  0  0  0  0  0  0  0  0
   11.2747   46.1185   34.4982 H   0  0  0  0  0  0  0  0  0  0  0  0
    7.8366   44.9324   33.7130 H   0  0  0  0  0  0  0  0  0  0  0  0
    8.7944   45.7929   34.9663 H   0  0  0  0  0  0  0  0  0  0  0  0
    6.5657   48.7140   31.9119 H   0  0  0  0  0  0  0  0  0  0  0  0
    8.1961   48.7905   31.1546 H   0  0  0  0  0  0  0  0  0  0  0  0
    4.6700   47.6868   30.7064 H   0  0  0  0  0  0  0  0  0  0  0  0
    8.6008   47.7532   28.9279 H   0  0  0  0  0  0  0  0  0  0  0  0
    3.7052   47.0438   28.5255 H   0  0  0  0  0  0  0  0  0  0  0  0
    7.6175   47.1097   26.7552 H   0  0  0  0  0  0  0  0  0  0  0  0
    5.1722   46.7577   26.5476 H   0  0  0  0  0  0  0  0  0  0  0  0
    9.8232   40.7210   31.7578 H   0  0  0  0  0  0  0  0  0  0  0  0
   11.3853   41.5434   31.4688 H   0  0  0  0  0  0  0  0  0  0  0  0
   11.6993   39.5065   30.3487 H   0  0  0  0  0  0  0  0  0  0  0  0
   10.1120   38.2722   32.6631 H   0  0  0  0  0  0  0  0  0  0  0  0
   13.6816   37.4633   31.2269 H   0  0  0  0  0  0  0  0  0  0  0  0
    9.0036   37.3827   30.9348 H   0  0  0  0  0  0  0  0  0  0  0  0
   11.2846   36.3040   32.4928 H   0  0  0  0  0  0  0  0  0  0  0  0
   11.8850   36.9590   29.7588 H   0  0  0  0  0  0  0  0  0  0  0  0
   12.3363   38.3599   34.7441 H   0  0  0  0  0  0  0  0  0  0  0  0
   16.7574   34.1790   32.4623 H   0  0  0  0  0  0  0  0  0  0  0  0
   16.6363   34.5317   37.1418 H   0  0  0  0  0  0  0  0  0  0  0  0
   15.3529   35.7355   37.5141 H   0  0  0  0  0  0  0  0  0  0  0  0
  1  2  2  0
  1  3  1  0
  3  4  1  0
  4  5  1  0
  6  1  1  0
  7  6  1  0
  6  8  1  0
  8  9  1  0
  9 10  1  0
  9 11  2  0
 10 12  1  0
 12 13  1  0
 13 14  2  0
 15 13  1  0
 14 16  1  0
 17 15  2  0
 16 18  2  0
 18 17  1  0
  4 19  2  0
  4 20  1  0
 21 20  1  0
 21 22  1  0
 22 23  1  0
 22 24  1  0
 23 25  1  0
 24 26  1  0
 24 27  1  0
 27 25  1  0
 25 28  1  0
 27 29  1  0
 30 28  1  0
 31 28  1  0
 32 30  2  0
 30 33  1  0
 34 31  2  0
 35 32  1  0
 33 36  2  0
 33 34  1  0
 37 35  2  0
 37 36  1  0
 36 38  1  0
  6 39  1  6
  7 40  1  0
  7 41  1  0
  8 42  1  0
  8 43  1  0
 12 44  1  0
 12 45  1  0
 14 46  1  0
 15 47  1  0
 16 48  1  0
 17 49  1  0
 18 50  1  0
 21 51  1  0
 21 52  1  0
 22 53  1  0
 24 54  1  0
 25 55  1  0
 26 56  1  0
 27 57  1  0
 29 58  1  0
 31 59  1  0
 35 60  1  0
 38 61  1  0
 38 62  1  0
M  CHG  1   5  -1
M  END
>  <EmbedRMS>  (3) 
0.08837407416559467

$$$$

     RDKit          3D

 62 65  0  0  0  0  0  0  0  0999 V2000
   10.2872   43.7712   33.8023 C   0  0  0  0  0  0  0  0  0  0  0  0
   11.4094   43.5878   34.3592 O   0  0  0  0  0  0  0  0  0  0  0  0
    9.3678   42.7307   33.6983 O   0  0  0  0  0  0  0  0  0  0  0  0
    9.8849   41.2345   34.2847 P   0  0  0  0  0  5  0  0  0  0  0  0
   10.3649   41.4713   35.8752 O   0  0  0  0  0  1  0  0  0  0  0  0
    9.9519   45.1156   33.2557 C   0  0  2  0  0  0  0  0  0  0  0  0
   11.0707   46.0335   33.4777 N   0  0  0  0  0  0  0  0  0  0  0  0
    8.6624   45.6649   33.8993 C   0  0  0  0  0  0  0  0  0  0  0  0
    8.7967   45.8396   35.3831 C   0  0  0  0  0  0  0  0  0  0  0  0
    8.5668   44.7461   36.2257 O   0  0  0  0  0  0  0  0  0  0  0  0
    9.1554   46.9535   35.8537 O   0  0  0  0  0  0  0  0  0  0  0  0
    8.6815   44.8123   37.6449 C   0  0  0  0  0  0  0  0  0  0  0  0
    7.5318   45.5872   38.2280 C   0  0  0  0  0  0  0  0  0  0  0  0
    7.7399   46.8478   38.8123 C   0  0  0  0  0  0  0  0  0  0  0  0
    6.2306   45.0628   38.1656 C   0  0  0  0  0  0  0  0  0  0  0  0
    6.6605   47.5679   39.3342 C   0  0  0  0  0  0  0  0  0  0  0  0
    5.1541   45.7860   38.6887 C   0  0  0  0  0  0  0  0  0  0  0  0
    5.3689   47.0373   39.2731 C   0  0  0  0  0  0  0  0  0  0  0  0
    8.8074   40.1916   34.2092 O   0  0  0  0  0  0  0  0  0  0  0  0
   11.2367   40.7898   33.3695 O   0  0  0  0  0  0  0  0  0  0  0  0
   10.9156   40.6897   31.9963 C   0  0  0  0  0  0  0  0  0  0  0  0
   11.5270   39.3898   31.4375 C   0  0  0  0  0  0  0  0  0  0  0  0
   12.7508   39.0916   32.0839 O   0  0  0  0  0  0  0  0  0  0  0  0
   10.6122   38.1916   31.6452 C   0  0  0  0  0  0  0  0  0  0  0  0
   12.9429   37.6852   32.0295 C   0  0  0  0  0  0  0  0  0  0  0  0
    9.6070   38.0858   30.6603 O   0  0  0  0  0  0  0  0  0  0  0  0
   11.5845   37.0186   31.6879 C   0  0  0  0  0  0  0  0  0  0  0  0
   13.4899   37.2163   33.3250 N   0  0  0  0  0  0  0  0  0  0  0  0
   11.6201   36.3062   30.4693 O   0  0  0  0  0  0  0  0  0  0  0  0
   14.4759   36.3263   33.5739 C   0  0  0  0  0  0  0  0  0  0  0  0
   13.1176   37.6307   34.5699 C   0  0  0  0  0  0  0  0  0  0  0  0
   15.2065   35.6139   32.6746 N   0  0  0  0  0  0  0  0  0  0  0  0
   14.6731   36.2267   34.9191 C   0  0  0  0  0  0  0  0  0  0  0  0
   13.8224   37.0450   35.5792 N   0  0  0  0  0  0  0  0  0  0  0  0
   16.1640   34.7596   33.1551 C   0  0  0  0  0  0  0  0  0  0  0  0
   15.6517   35.3489   35.4136 C   0  0  0  0  0  0  0  0  0  0  0  0
   16.3795   34.6310   34.5046 N   0  0  0  0  0  0  0  0  0  0  0  0
   15.9006   35.1931   36.8094 N   0  0  0  0  0  0  0  0  0  0  0  0
    9.7776   45.0095   32.1613 H   0  0  0  0  0  0  0  0  0  0  0  0
   11.8804   45.7138   32.8965 H   0  0  0  0  0  0  0  0  0  0  0  0
   10.8083   46.9725   33.0985 H   0  0  0  0  0  0  0  0  0  0  0  0
    7.8162   44.9745   33.6916 H   0  0  0  0  0  0  0  0  0  0  0  0
    8.4029   46.6409   33.4342 H   0  0  0  0  0  0  0  0  0  0  0  0
    9.6614   45.2569   37.9261 H   0  0  0  0  0  0  0  0  0  0  0  0
    8.6615   43.7787   38.0504 H   0  0  0  0  0  0  0  0  0  0  0  0
    8.7342   47.2739   38.8623 H   0  0  0  0  0  0  0  0  0  0  0  0
    6.0516   44.0962   37.7108 H   0  0  0  0  0  0  0  0  0  0  0  0
    6.8252   48.5383   39.7843 H   0  0  0  0  0  0  0  0  0  0  0  0
    4.1532   45.3772   38.6393 H   0  0  0  0  0  0  0  0  0  0  0  0
    4.5347   47.5963   39.6768 H   0  0  0  0  0  0  0  0  0  0  0  0
   11.3828   41.5526   31.4753 H   0  0  0  0  0  0  0  0  0  0  0  0
    9.8255   40.7190   31.7589 H   0  0  0  0  0  0  0  0  0  0  0  0
   11.7318   39.5340   30.3521 H   0  0  0  0  0  0  0  0  0  0  0  0
   10.1214   38.2682   32.6413 H   0  0  0  0  0  0  0  0  0  0  0  0
   13.6882   37.4707   31.2319 H   0  0  0  0  0  0  0  0  0  0  0  0
   10.0257   38.1752   29.7656 H   0  0  0  0  0  0  0  0  0  0  0  0
   11.2796   36.3123   32.4915 H   0  0  0  0  0  0  0  0  0  0  0  0
   11.9872   36.9099   29.7715 H   0  0  0  0  0  0  0  0  0  0  0  0
   12.3365   38.3596   34.7453 H   0  0  0  0  0  0  0  0  0  0  0  0
   16.7576   34.1794   32.4622 H   0  0  0  0  0  0  0  0  0  0  0  0
   16.6368   34.5316   37.1418 H   0  0  0  0  0  0  0  0  0  0  0  0
   15.3532   35.7351   37.5143 H   0  0  0  0  0  0  0  0  0  0  0  0
  1  2  2  0
  1  3  1  0
  3  4  1  0
  4  5  1  0
  6  1  1  0
  7  6  1  0
  6  8  1  0
  8  9  1  0
  9 10  1  0
  9 11  2  0
 10 12  1  0
 12 13  1  0
 13 14  2  0
 15 13  1  0
 14 16  1  0
 17 15  2  0
 16 18  2  0
 18 17  1  0
  4 19  2  0
  4 20  1  0
 21 20  1  0
 21 22  1  0
 22 23  1  0
 22 24  1  0
 23 25  1  0
 24 26  1  0
 24 27  1  0
 27 25  1  0
 25 28  1  0
 27 29  1  0
 30 28  1  0
 31 28  1  0
 32 30  2  0
 30 33  1  0
 34 31  2  0
 35 32  1  0
 33 36  2  0
 33 34  1  0
 37 35  2  0
 37 36  1  0
 36 38  1  0
  6 39  1  6
  7 40  1  0
  7 41  1  0
  8 42  1  0
  8 43  1  0
 12 44  1  0
 12 45  1  0
 14 46  1  0
 15 47  1  0
 16 48  1  0
 17 49  1  0
 18 50  1  0
 21 51  1  0
 21 52  1  0
 22 53  1  0
 24 54  1  0
 25 55  1  0
 26 56  1  0
 27 57  1  0
 29 58  1  0
 31 59  1  0
 35 60  1  0
 38 61  1  0
 38 62  1  0
M  CHG  1   5  -1
M  END
>  <EmbedRMS>  (4) 
0.0870181987103547

$$$$

     RDKit          3D

 62 65  0  0  0  0  0  0  0  0999 V2000
   10.2876   43.7688   33.8088 C   0  0  0  0  0  0  0  0  0  0  0  0
   11.4116   43.5793   34.3596 O   0  0  0  0  0  0  0  0  0  0  0  0
    9.3666   42.7304   33.7022 O   0  0  0  0  0  0  0  0  0  0  0  0
    9.8841   41.2327   34.2848 P   0  0  0  0  0  5  0  0  0  0  0  0
   10.3643   41.4680   35.8755 O   0  0  0  0  0  1  0  0  0  0  0  0
    9.9639   45.1115   33.2468 C   0  0  2  0  0  0  0  0  0  0  0  0
   11.0621   46.0541   33.4764 N   0  0  0  0  0  0  0  0  0  0  0  0
    8.6420   45.6681   33.8101 C   0  0  0  0  0  0  0  0  0  0  0  0
    8.6654   45.8216   35.3022 C   0  0  0  0  0  0  0  0  0  0  0  0
    9.1565   47.0030   35.8638 O   0  0  0  0  0  0  0  0  0  0  0  0
    8.2761   44.8729   36.0369 O   0  0  0  0  0  0  0  0  0  0  0  0
    9.2671   47.1975   37.2689 C   0  0  0  0  0  0  0  0  0  0  0  0
    9.8765   48.5425   37.5335 C   0  0  0  0  0  0  0  0  0  0  0  0
    9.0585   49.6657   37.7396 C   0  0  0  0  0  0  0  0  0  0  0  0
   11.2719   48.7012   37.5085 C   0  0  0  0  0  0  0  0  0  0  0  0
    9.6313   50.9245   37.9474 C   0  0  0  0  0  0  0  0  0  0  0  0
   11.8407   49.9617   37.7165 C   0  0  0  0  0  0  0  0  0  0  0  0
   11.0212   51.0721   37.9383 C   0  0  0  0  0  0  0  0  0  0  0  0
    8.8068   40.1900   34.2079 O   0  0  0  0  0  0  0  0  0  0  0  0
   11.2373   40.7900   33.3700 O   0  0  0  0  0  0  0  0  0  0  0  0
   10.9185   40.6904   31.9964 C   0  0  0  0  0  0  0  0  0  0  0  0
   11.5174   39.3824   31.4413 C   0  0  0  0  0  0  0  0  0  0  0  0
   12.7494   39.0893   32.0756 O   0  0  0  0  0  0  0  0  0  0  0  0
   10.6036   38.1899   31.6659 C   0  0  0  0  0  0  0  0  0  0  0  0
   12.9401   37.6834   32.0276 C   0  0  0  0  0  0  0  0  0  0  0  0
    9.6376   38.0785   30.6474 O   0  0  0  0  0  0  0  0  0  0  0  0
   11.5804   37.0204   31.6937 C   0  0  0  0  0  0  0  0  0  0  0  0
   13.4902   37.2177   33.3237 N   0  0  0  0  0  0  0  0  0  0  0  0
   11.6118   36.3193   30.4680 O   0  0  0  0  0  0  0  0  0  0  0  0
   14.4759   36.3271   33.5731 C   0  0  0  0  0  0  0  0  0  0  0  0
   13.1176   37.6317   34.5688 C   0  0  0  0  0  0  0  0  0  0  0  0
   15.2064   35.6141   32.6742 N   0  0  0  0  0  0  0  0  0  0  0  0
   14.6729   36.2274   34.9184 C   0  0  0  0  0  0  0  0  0  0  0  0
   13.8221   37.0457   35.5783 N   0  0  0  0  0  0  0  0  0  0  0  0
   16.1637   34.7597   33.1549 C   0  0  0  0  0  0  0  0  0  0  0  0
   15.6514   35.3493   35.4133 C   0  0  0  0  0  0  0  0  0  0  0  0
   16.3791   34.6312   34.5044 N   0  0  0  0  0  0  0  0  0  0  0  0
   15.9001   35.1935   36.8091 N   0  0  0  0  0  0  0  0  0  0  0  0
    9.8336   44.9914   32.1487 H   0  0  0  0  0  0  0  0  0  0  0  0
   11.9089   45.7284   32.9547 H   0  0  0  0  0  0  0  0  0  0  0  0
   11.3055   46.0956   34.4934 H   0  0  0  0  0  0  0  0  0  0  0  0
    8.4395   46.6594   33.3501 H   0  0  0  0  0  0  0  0  0  0  0  0
    7.8022   44.9984   33.5217 H   0  0  0  0  0  0  0  0  0  0  0  0
    9.9064   46.4006   37.7087 H   0  0  0  0  0  0  0  0  0  0  0  0
    8.2607   47.1283   37.7372 H   0  0  0  0  0  0  0  0  0  0  0  0
    7.9800   49.5672   37.7389 H   0  0  0  0  0  0  0  0  0  0  0  0
   11.9172   47.8504   37.3270 H   0  0  0  0  0  0  0  0  0  0  0  0
    8.9976   51.7865   38.1114 H   0  0  0  0  0  0  0  0  0  0  0  0
   12.9166   50.0784   37.7016 H   0  0  0  0  0  0  0  0  0  0  0  0
   11.4629   52.0473   38.0977 H   0  0  0  0  0  0  0  0  0  0  0  0
    9.8307   40.7397   31.7559 H   0  0  0  0  0  0  0  0  0  0  0  0
   11.3997   41.5455   31.4753 H   0  0  0  0  0  0  0  0  0  0  0  0
   11.6988   39.5093   30.3490 H   0  0  0  0  0  0  0  0  0  0  0  0
   10.1129   38.2587   32.6664 H   0  0  0  0  0  0  0  0  0  0  0  0
   13.6800   37.4628   31.2265 H   0  0  0  0  0  0  0  0  0  0  0  0
    8.8952   38.6907   30.8891 H   0  0  0  0  0  0  0  0  0  0  0  0
   11.2831   36.3060   32.4929 H   0  0  0  0  0  0  0  0  0  0  0  0
   11.8860   36.9589   29.7593 H   0  0  0  0  0  0  0  0  0  0  0  0
   12.3360   38.3600   34.7442 H   0  0  0  0  0  0  0  0  0  0  0  0
   16.7572   34.1793   32.4621 H   0  0  0  0  0  0  0  0  0  0  0  0
   15.3528   35.7356   37.5140 H   0  0  0  0  0  0  0  0  0  0  0  0
   16.6362   34.5318   37.1416 H   0  0  0  0  0  0  0  0  0  0  0  0
  1  2  2  0
  1  3  1  0
  3  4  1  0
  4  5  1  0
  6  1  1  0
  7  6  1  0
  6  8  1  0
  8  9  1  0
  9 10  1  0
  9 11  2  0
 10 12  1  0
 12 13  1  0
 13 14  2  0
 15 13  1  0
 14 16  1  0
 17 15  2  0
 16 18  2  0
 18 17  1  0
  4 19  2  0
  4 20  1  0
 21 20  1  0
 21 22  1  0
 22 23  1  0
 22 24  1  0
 23 25  1  0
 24 26  1  0
 24 27  1  0
 27 25  1  0
 25 28  1  0
 27 29  1  0
 30 28  1  0
 31 28  1  0
 32 30  2  0
 30 33  1  0
 34 31  2  0
 35 32  1  0
 33 36  2  0
 33 34  1  0
 37 35  2  0
 37 36  1  0
 36 38  1  0
  6 39  1  6
  7 40  1  0
  7 41  1  0
  8 42  1  0
  8 43  1  0
 12 44  1  0
 12 45  1  0
 14 46  1  0
 15 47  1  0
 16 48  1  0
 17 49  1  0
 18 50  1  0
 21 51  1  0
 21 52  1  0
 22 53  1  0
 24 54  1  0
 25 55  1  0
 26 56  1  0
 27 57  1  0
 29 58  1  0
 31 59  1  0
 35 60  1  0
 38 61  1  0
 38 62  1  0
M  CHG  1   5  -1
M  END
>  <EmbedRMS>  (5) 
0.08896764923656438

$$$$

     RDKit          3D

 62 65  0  0  0  0  0  0  0  0999 V2000
   10.2856   43.7729   33.8072 C   0  0  0  0  0  0  0  0  0  0  0  0
   11.4092   43.5889   34.3610 O   0  0  0  0  0  0  0  0  0  0  0  0
    9.3674   42.7315   33.7013 O   0  0  0  0  0  0  0  0  0  0  0  0
    9.8850   41.2342   34.2843 P   0  0  0  0  0  5  0  0  0  0  0  0
   10.3646   41.4669   35.8748 O   0  0  0  0  0  1  0  0  0  0  0  0
    9.9519   45.1150   33.2549 C   0  0  2  0  0  0  0  0  0  0  0  0
   11.0723   46.0326   33.4719 N   0  0  0  0  0  0  0  0  0  0  0  0
    8.6613   45.6695   33.8932 C   0  0  0  0  0  0  0  0  0  0  0  0
    8.8400   45.9928   35.3471 C   0  0  0  0  0  0  0  0  0  0  0  0
    8.8831   44.9552   36.2852 O   0  0  0  0  0  0  0  0  0  0  0  0
    8.9820   47.1933   35.7070 O   0  0  0  0  0  0  0  0  0  0  0  0
    9.1978   45.1584   37.6609 C   0  0  0  0  0  0  0  0  0  0  0  0
   10.6547   45.5006   37.8172 C   0  0  0  0  0  0  0  0  0  0  0  0
   11.6326   44.5159   37.6045 C   0  0  0  0  0  0  0  0  0  0  0  0
   11.0538   46.8117   38.1268 C   0  0  0  0  0  0  0  0  0  0  0  0
   12.9897   44.8363   37.7065 C   0  0  0  0  0  0  0  0  0  0  0  0
   12.4121   47.1282   38.2292 C   0  0  0  0  0  0  0  0  0  0  0  0
   13.3793   46.1414   38.0190 C   0  0  0  0  0  0  0  0  0  0  0  0
    8.8075   40.1914   34.2073 O   0  0  0  0  0  0  0  0  0  0  0  0
   11.2370   40.7911   33.3687 O   0  0  0  0  0  0  0  0  0  0  0  0
   10.9155   40.6900   31.9957 C   0  0  0  0  0  0  0  0  0  0  0  0
   11.5271   39.3899   31.4374 C   0  0  0  0  0  0  0  0  0  0  0  0
   12.7507   39.0918   32.0841 O   0  0  0  0  0  0  0  0  0  0  0  0
   10.6123   38.1917   31.6453 C   0  0  0  0  0  0  0  0  0  0  0  0
   12.9430   37.6855   32.0297 C   0  0  0  0  0  0  0  0  0  0  0  0
    9.6070   38.0859   30.6604 O   0  0  0  0  0  0  0  0  0  0  0  0
   11.5846   37.0187   31.6881 C   0  0  0  0  0  0  0  0  0  0  0  0
   13.4899   37.2165   33.3251 N   0  0  0  0  0  0  0  0  0  0  0  0
   11.6203   36.3065   30.4694 O   0  0  0  0  0  0  0  0  0  0  0  0
   14.4759   36.3264   33.5739 C   0  0  0  0  0  0  0  0  0  0  0  0
   13.1177   37.6309   34.5700 C   0  0  0  0  0  0  0  0  0  0  0  0
   15.2064   35.6139   32.6746 N   0  0  0  0  0  0  0  0  0  0  0  0
   14.6731   36.2267   34.9191 C   0  0  0  0  0  0  0  0  0  0  0  0
   13.8225   37.0451   35.5793 N   0  0  0  0  0  0  0  0  0  0  0  0
   16.1638   34.7594   33.1551 C   0  0  0  0  0  0  0  0  0  0  0  0
   15.6517   35.3488   35.4136 C   0  0  0  0  0  0  0  0  0  0  0  0
   16.3794   34.6308   34.5045 N   0  0  0  0  0  0  0  0  0  0  0  0
   15.9005   35.1930   36.8094 N   0  0  0  0  0  0  0  0  0  0  0  0
    9.7782   45.0009   32.1612 H   0  0  0  0  0  0  0  0  0  0  0  0
   10.8091   46.9708   33.0911 H   0  0  0  0  0  0  0  0  0  0  0  0
   11.8806   45.7104   32.8901 H   0  0  0  0  0  0  0  0  0  0  0  0
    8.3513   46.5872   33.3470 H   0  0  0  0  0  0  0  0  0  0  0  0
    7.8341   44.9352   33.7831 H   0  0  0  0  0  0  0  0  0  0  0  0
    8.9839   44.2207   38.2160 H   0  0  0  0  0  0  0  0  0  0  0  0
    8.5441   45.9504   38.0877 H   0  0  0  0  0  0  0  0  0  0  0  0
   11.3435   43.5029   37.3574 H   0  0  0  0  0  0  0  0  0  0  0  0
   10.3160   47.5885   38.2837 H   0  0  0  0  0  0  0  0  0  0  0  0
   13.7392   44.0732   37.5406 H   0  0  0  0  0  0  0  0  0  0  0  0
   12.7152   48.1394   38.4679 H   0  0  0  0  0  0  0  0  0  0  0  0
   14.4301   46.3886   38.0963 H   0  0  0  0  0  0  0  0  0  0  0  0
    9.8254   40.7192   31.7585 H   0  0  0  0  0  0  0  0  0  0  0  0
   11.3823   41.5527   31.4740 H   0  0  0  0  0  0  0  0  0  0  0  0
   11.7322   39.5338   30.3521 H   0  0  0  0  0  0  0  0  0  0  0  0
   10.1217   38.2685   32.6414 H   0  0  0  0  0  0  0  0  0  0  0  0
   13.6883   37.4712   31.2321 H   0  0  0  0  0  0  0  0  0  0  0  0
   10.0256   38.1748   29.7657 H   0  0  0  0  0  0  0  0  0  0  0  0
   11.2796   36.3125   32.4917 H   0  0  0  0  0  0  0  0  0  0  0  0
   11.9867   36.9105   29.7715 H   0  0  0  0  0  0  0  0  0  0  0  0
   12.3370   38.3601   34.7455 H   0  0  0  0  0  0  0  0  0  0  0  0
   16.7572   34.1791   32.4622 H   0  0  0  0  0  0  0  0  0  0  0  0
   16.6367   34.5315   37.1419 H   0  0  0  0  0  0  0  0  0  0  0  0
   15.3531   35.7351   37.5143 H   0  0  0  0  0  0  0  0  0  0  0  0
  1  2  2  0
  1  3  1  0
  3  4  1  0
  4  5  1  0
  6  1  1  0
  7  6  1  0
  6  8  1  0
  8  9  1  0
  9 10  1  0
  9 11  2  0
 10 12  1  0
 12 13  1  0
 13 14  2  0
 15 13  1  0
 14 16  1  0
 17 15  2  0
 16 18  2  0
 18 17  1  0
  4 19  2  0
  4 20  1  0
 21 20  1  0
 21 22  1  0
 22 23  1  0
 22 24  1  0
 23 25  1  0
 24 26  1  0
 24 27  1  0
 27 25  1  0
 25 28  1  0
 27 29  1  0
 30 28  1  0
 31 28  1  0
 32 30  2  0
 30 33  1  0
 34 31  2  0
 35 32  1  0
 33 36  2  0
 33 34  1  0
 37 35  2  0
 37 36  1  0
 36 38  1  0
  6 39  1  6
  7 40  1  0
  7 41  1  0
  8 42  1  0
  8 43  1  0
 12 44  1  0
 12 45  1  0
 14 46  1  0
 15 47  1  0
 16 48  1  0
 17 49  1  0
 18 50  1  0
 21 51  1  0
 21 52  1  0
 22 53  1  0
 24 54  1  0
 25 55  1  0
 26 56  1  0
 27 57  1  0
 29 58  1  0
 31 59  1  0
 35 60  1  0
 38 61  1  0
 38 62  1  0
M  CHG  1   5  -1
M  END
>  <EmbedRMS>  (6) 
0.0872459698039783

$$$$

     RDKit          3D

 62 65  0  0  0  0  0  0  0  0999 V2000
   10.2857   43.7730   33.8072 C   0  0  0  0  0  0  0  0  0  0  0  0
   11.4091   43.5891   34.3614 O   0  0  0  0  0  0  0  0  0  0  0  0
    9.3677   42.7315   33.7011 O   0  0  0  0  0  0  0  0  0  0  0  0
    9.8853   41.2340   34.2838 P   0  0  0  0  0  5  0  0  0  0  0  0
   10.3650   41.4667   35.8743 O   0  0  0  0  0  1  0  0  0  0  0  0
    9.9527   45.1146   33.2533 C   0  0  2  0  0  0  0  0  0  0  0  0
   11.0717   46.0333   33.4730 N   0  0  0  0  0  0  0  0  0  0  0  0
    8.6595   45.6685   33.8866 C   0  0  0  0  0  0  0  0  0  0  0  0
    8.8310   45.9890   35.3420 C   0  0  0  0  0  0  0  0  0  0  0  0
    8.8630   44.9499   36.2790 O   0  0  0  0  0  0  0  0  0  0  0  0
    8.9764   47.1883   35.7045 O   0  0  0  0  0  0  0  0  0  0  0  0
    9.1597   45.1510   37.6590 C   0  0  0  0  0  0  0  0  0  0  0  0
   10.6128   45.5004   37.8351 C   0  0  0  0  0  0  0  0  0  0  0  0
   11.5994   44.5249   37.6203 C   0  0  0  0  0  0  0  0  0  0  0  0
   10.9998   46.8093   38.1685 C   0  0  0  0  0  0  0  0  0  0  0  0
   12.9531   44.8521   37.7431 C   0  0  0  0  0  0  0  0  0  0  0  0
   12.3548   47.1326   38.2918 C   0  0  0  0  0  0  0  0  0  0  0  0
   13.3307   46.1549   38.0792 C   0  0  0  0  0  0  0  0  0  0  0  0
    8.8075   40.1915   34.2073 O   0  0  0  0  0  0  0  0  0  0  0  0
   11.2371   40.7903   33.3679 O   0  0  0  0  0  0  0  0  0  0  0  0
   10.9154   40.6883   31.9949 C   0  0  0  0  0  0  0  0  0  0  0  0
   11.5261   39.3871   31.4365 C   0  0  0  0  0  0  0  0  0  0  0  0
   12.7491   39.0893   32.0820 O   0  0  0  0  0  0  0  0  0  0  0  0
   10.6123   38.1894   31.6462 C   0  0  0  0  0  0  0  0  0  0  0  0
   12.9373   37.6827   32.0301 C   0  0  0  0  0  0  0  0  0  0  0  0
    9.6150   38.0839   30.6538 O   0  0  0  0  0  0  0  0  0  0  0  0
   11.5793   37.0137   31.7014 C   0  0  0  0  0  0  0  0  0  0  0  0
   13.4906   37.2170   33.3243 N   0  0  0  0  0  0  0  0  0  0  0  0
   11.6216   36.3253   30.4725 O   0  0  0  0  0  0  0  0  0  0  0  0
   14.4763   36.3266   33.5731 C   0  0  0  0  0  0  0  0  0  0  0  0
   13.1182   37.6309   34.5694 C   0  0  0  0  0  0  0  0  0  0  0  0
   15.2065   35.6137   32.6740 N   0  0  0  0  0  0  0  0  0  0  0  0
   14.6735   36.2270   34.9185 C   0  0  0  0  0  0  0  0  0  0  0  0
   13.8229   37.0451   35.5788 N   0  0  0  0  0  0  0  0  0  0  0  0
   16.1639   34.7593   33.1547 C   0  0  0  0  0  0  0  0  0  0  0  0
   15.6518   35.3489   35.4132 C   0  0  0  0  0  0  0  0  0  0  0  0
   16.3794   34.6308   34.5042 N   0  0  0  0  0  0  0  0  0  0  0  0
   15.9006   35.1931   36.8090 N   0  0  0  0  0  0  0  0  0  0  0  0
    9.7827   44.9998   32.1591 H   0  0  0  0  0  0  0  0  0  0  0  0
   11.8820   45.7118   32.8936 H   0  0  0  0  0  0  0  0  0  0  0  0
   10.8087   46.9710   33.0910 H   0  0  0  0  0  0  0  0  0  0  0  0
    7.8326   44.9348   33.7708 H   0  0  0  0  0  0  0  0  0  0  0  0
    8.3526   46.5875   33.3407 H   0  0  0  0  0  0  0  0  0  0  0  0
    8.4963   45.9384   38.0794 H   0  0  0  0  0  0  0  0  0  0  0  0
    8.9440   44.2107   38.2091 H   0  0  0  0  0  0  0  0  0  0  0  0
   11.3196   43.5138   37.3558 H   0  0  0  0  0  0  0  0  0  0  0  0
   10.2553   47.5793   38.3281 H   0  0  0  0  0  0  0  0  0  0  0  0
   13.7092   44.0960   37.5757 H   0  0  0  0  0  0  0  0  0  0  0  0
   12.6484   48.1421   38.5489 H   0  0  0  0  0  0  0  0  0  0  0  0
   14.3790   46.4073   38.1731 H   0  0  0  0  0  0  0  0  0  0  0  0
    9.8253   40.7182   31.7579 H   0  0  0  0  0  0  0  0  0  0  0  0
   11.3828   41.5504   31.4726 H   0  0  0  0  0  0  0  0  0  0  0  0
   11.7291   39.5287   30.3504 H   0  0  0  0  0  0  0  0  0  0  0  0
   10.1139   38.2719   32.6380 H   0  0  0  0  0  0  0  0  0  0  0  0
   13.6726   37.4637   31.2240 H   0  0  0  0  0  0  0  0  0  0  0  0
   10.0536   38.1086   29.7639 H   0  0  0  0  0  0  0  0  0  0  0  0
   11.2646   36.3135   32.5107 H   0  0  0  0  0  0  0  0  0  0  0  0
   12.1550   35.5033   30.6316 H   0  0  0  0  0  0  0  0  0  0  0  0
   12.3363   38.3587   34.7451 H   0  0  0  0  0  0  0  0  0  0  0  0
   16.7573   34.1788   32.4619 H   0  0  0  0  0  0  0  0  0  0  0  0
   16.6366   34.5314   37.1415 H   0  0  0  0  0  0  0  0  0  0  0  0
   15.3533   35.7353   37.5139 H   0  0  0  0  0  0  0  0  0  0  0  0
  1  2  2  0
  1  3  1  0
  3  4  1  0
  4  5  1  0
  6  1  1  0
  7  6  1  0
  6  8  1  0
  8  9  1  0
  9 10  1  0
  9 11  2  0
 10 12  1  0
 12 13  1  0
 13 14  2  0
 15 13  1  0
 14 16  1  0
 17 15  2  0
 16 18  2  0
 18 17  1  0
  4 19  2  0
  4 20  1  0
 21 20  1  0
 21 22  1  0
 22 23  1  0
 22 24  1  0
 23 25  1  0
 24 26  1  0
 24 27  1  0
 27 25  1  0
 25 28  1  0
 27 29  1  0
 30 28  1  0
 31 28  1  0
 32 30  2  0
 30 33  1  0
 34 31  2  0
 35 32  1  0
 33 36  2  0
 33 34  1  0
 37 35  2  0
 37 36  1  0
 36 38  1  0
  6 39  1  6
  7 40  1  0
  7 41  1  0
  8 42  1  0
  8 43  1  0
 12 44  1  0
 12 45  1  0
 14 46  1  0
 15 47  1  0
 16 48  1  0
 17 49  1  0
 18 50  1  0
 21 51  1  0
 21 52  1  0
 22 53  1  0
 24 54  1  0
 25 55  1  0
 26 56  1  0
 27 57  1  0
 29 58  1  0
 31 59  1  0
 35 60  1  0
 38 61  1  0
 38 62  1  0
M  CHG  1   5  -1
M  END
>  <EmbedRMS>  (7) 
0.08818667027340184

$$$$

     RDKit          3D

 62 65  0  0  0  0  0  0  0  0999 V2000
   10.2844   43.7742   33.8068 C   0  0  0  0  0  0  0  0  0  0  0  0
   11.4068   43.5902   34.3637 O   0  0  0  0  0  0  0  0  0  0  0  0
    9.3679   42.7310   33.6987 O   0  0  0  0  0  0  0  0  0  0  0  0
    9.8859   41.2341   34.2835 P   0  0  0  0  0  5  0  0  0  0  0  0
   10.3663   41.4696   35.8740 O   0  0  0  0  0  1  0  0  0  0  0  0
    9.9493   45.1163   33.2546 C   0  0  2  0  0  0  0  0  0  0  0  0
   11.0754   46.0282   33.4733 N   0  0  0  0  0  0  0  0  0  0  0  0
    8.6771   45.6528   33.9408 C   0  0  0  0  0  0  0  0  0  0  0  0
    8.1877   46.9086   33.2890 C   0  0  0  0  0  0  0  0  0  0  0  0
    8.4666   48.1453   33.8814 O   0  0  0  0  0  0  0  0  0  0  0  0
    7.5586   46.8427   32.1977 O   0  0  0  0  0  0  0  0  0  0  0  0
    8.1697   49.3937   33.2604 C   0  0  0  0  0  0  0  0  0  0  0  0
    9.1114   49.6404   32.1136 C   0  0  0  0  0  0  0  0  0  0  0  0
   10.4703   49.8901   32.3648 C   0  0  0  0  0  0  0  0  0  0  0  0
    8.6551   49.5823   30.7861 C   0  0  0  0  0  0  0  0  0  0  0  0
   11.3582   50.0876   31.3028 C   0  0  0  0  0  0  0  0  0  0  0  0
    9.5462   49.7813   29.7268 C   0  0  0  0  0  0  0  0  0  0  0  0
   10.8964   50.0342   29.9848 C   0  0  0  0  0  0  0  0  0  0  0  0
    8.8082   40.1914   34.2081 O   0  0  0  0  0  0  0  0  0  0  0  0
   11.2374   40.7899   33.3677 O   0  0  0  0  0  0  0  0  0  0  0  0
   10.9156   40.6881   31.9946 C   0  0  0  0  0  0  0  0  0  0  0  0
   11.5262   39.3870   31.4363 C   0  0  0  0  0  0  0  0  0  0  0  0
   12.7492   39.0892   32.0818 O   0  0  0  0  0  0  0  0  0  0  0  0
   10.6123   38.1893   31.6461 C   0  0  0  0  0  0  0  0  0  0  0  0
   12.9374   37.6826   32.0301 C   0  0  0  0  0  0  0  0  0  0  0  0
    9.6150   38.0838   30.6538 O   0  0  0  0  0  0  0  0  0  0  0  0
   11.5793   37.0136   31.7014 C   0  0  0  0  0  0  0  0  0  0  0  0
   13.4906   37.2169   33.3242 N   0  0  0  0  0  0  0  0  0  0  0  0
   11.6216   36.3252   30.4725 O   0  0  0  0  0  0  0  0  0  0  0  0
   14.4763   36.3266   33.5731 C   0  0  0  0  0  0  0  0  0  0  0  0
   13.1182   37.6308   34.5694 C   0  0  0  0  0  0  0  0  0  0  0  0
   15.2066   35.6137   32.6740 N   0  0  0  0  0  0  0  0  0  0  0  0
   14.6736   36.2270   34.9185 C   0  0  0  0  0  0  0  0  0  0  0  0
   13.8229   37.0451   35.5787 N   0  0  0  0  0  0  0  0  0  0  0  0
   16.1639   34.7593   33.1547 C   0  0  0  0  0  0  0  0  0  0  0  0
   15.6519   35.3489   35.4132 C   0  0  0  0  0  0  0  0  0  0  0  0
   16.3795   34.6308   34.5042 N   0  0  0  0  0  0  0  0  0  0  0  0
   15.9006   35.1931   36.8090 N   0  0  0  0  0  0  0  0  0  0  0  0
    9.7646   45.0046   32.1618 H   0  0  0  0  0  0  0  0  0  0  0  0
   11.8967   45.6756   32.9285 H   0  0  0  0  0  0  0  0  0  0  0  0
   10.8475   46.9536   33.0441 H   0  0  0  0  0  0  0  0  0  0  0  0
    8.8819   45.8493   35.0162 H   0  0  0  0  0  0  0  0  0  0  0  0
    7.8640   44.8960   33.8848 H   0  0  0  0  0  0  0  0  0  0  0  0
    7.1077   49.4124   32.9308 H   0  0  0  0  0  0  0  0  0  0  0  0
    8.2956   50.2024   34.0110 H   0  0  0  0  0  0  0  0  0  0  0  0
   10.8411   49.9254   33.3818 H   0  0  0  0  0  0  0  0  0  0  0  0
    7.6134   49.3797   30.5707 H   0  0  0  0  0  0  0  0  0  0  0  0
   12.4047   50.2791   31.5016 H   0  0  0  0  0  0  0  0  0  0  0  0
    9.1905   49.7364   28.7055 H   0  0  0  0  0  0  0  0  0  0  0  0
   11.5849   50.1862   29.1637 H   0  0  0  0  0  0  0  0  0  0  0  0
   11.3830   41.5502   31.4724 H   0  0  0  0  0  0  0  0  0  0  0  0
    9.8255   40.7180   31.7577 H   0  0  0  0  0  0  0  0  0  0  0  0
   11.7292   39.5285   30.3502 H   0  0  0  0  0  0  0  0  0  0  0  0
   10.1140   38.2719   32.6379 H   0  0  0  0  0  0  0  0  0  0  0  0
   13.6726   37.4635   31.2240 H   0  0  0  0  0  0  0  0  0  0  0  0
   10.0535   38.1084   29.7639 H   0  0  0  0  0  0  0  0  0  0  0  0
   11.2646   36.3134   32.5107 H   0  0  0  0  0  0  0  0  0  0  0  0
   12.1549   35.5031   30.6316 H   0  0  0  0  0  0  0  0  0  0  0  0
   12.3362   38.3586   34.7450 H   0  0  0  0  0  0  0  0  0  0  0  0
   16.7574   34.1788   32.4619 H   0  0  0  0  0  0  0  0  0  0  0  0
   15.3533   35.7353   37.5139 H   0  0  0  0  0  0  0  0  0  0  0  0
   16.6366   34.5314   37.1415 H   0  0  0  0  0  0  0  0  0  0  0  0
  1  2  2  0
  1  3  1  0
  3  4  1  0
  4  5  1  0
  6  1  1  0
  7  6  1  0
  6  8  1  0
  8  9  1  0
  9 10  1  0
  9 11  2  0
 10 12  1  0
 12 13  1  0
 13 14  2  0
 15 13  1  0
 14 16  1  0
 17 15  2  0
 16 18  2  0
 18 17  1  0
  4 19  2  0
  4 20  1  0
 21 20  1  0
 21 22  1  0
 22 23  1  0
 22 24  1  0
 23 25  1  0
 24 26  1  0
 24 27  1  0
 27 25  1  0
 25 28  1  0
 27 29  1  0
 30 28  1  0
 31 28  1  0
 32 30  2  0
 30 33  1  0
 34 31  2  0
 35 32  1  0
 33 36  2  0
 33 34  1  0
 37 35  2  0
 37 36  1  0
 36 38  1  0
  6 39  1  6
  7 40  1  0
  7 41  1  0
  8 42  1  0
  8 43  1  0
 12 44  1  0
 12 45  1  0
 14 46  1  0
 15 47  1  0
 16 48  1  0
 17 49  1  0
 18 50  1  0
 21 51  1  0
 21 52  1  0
 22 53  1  0
 24 54  1  0
 25 55  1  0
 26 56  1  0
 27 57  1  0
 29 58  1  0
 31 59  1  0
 35 60  1  0
 38 61  1  0
 38 62  1  0
M  CHG  1   5  -1
M  END
>  <EmbedRMS>  (8) 
0.0879987354540503

$$$$

     RDKit          3D

 62 65  0  0  0  0  0  0  0  0999 V2000
   10.2863   43.7709   33.8100 C   0  0  0  0  0  0  0  0  0  0  0  0
   11.4101   43.5817   34.3616 O   0  0  0  0  0  0  0  0  0  0  0  0
    9.3668   42.7309   33.7019 O   0  0  0  0  0  0  0  0  0  0  0  0
    9.8849   41.2328   34.2832 P   0  0  0  0  0  5  0  0  0  0  0  0
   10.3662   41.4672   35.8738 O   0  0  0  0  0  1  0  0  0  0  0  0
    9.9611   45.1120   33.2470 C   0  0  2  0  0  0  0  0  0  0  0  0
   11.0652   46.0483   33.4747 N   0  0  0  0  0  0  0  0  0  0  0  0
    8.6641   45.6568   33.8688 C   0  0  0  0  0  0  0  0  0  0  0  0
    8.2868   46.9656   33.2490 C   0  0  0  0  0  0  0  0  0  0  0  0
    7.7339   46.9807   31.9640 O   0  0  0  0  0  0  0  0  0  0  0  0
    8.5116   48.0415   33.8679 O   0  0  0  0  0  0  0  0  0  0  0  0
    7.5235   48.1781   31.2197 C   0  0  0  0  0  0  0  0  0  0  0  0
    8.8426   48.7601   30.7894 C   0  0  0  0  0  0  0  0  0  0  0  0
    9.2728   50.0037   31.2817 C   0  0  0  0  0  0  0  0  0  0  0  0
    9.6713   48.0422   29.9118 C   0  0  0  0  0  0  0  0  0  0  0  0
   10.5127   50.5223   30.8949 C   0  0  0  0  0  0  0  0  0  0  0  0
   10.9107   48.5639   29.5284 C   0  0  0  0  0  0  0  0  0  0  0  0
   11.3308   49.8033   30.0189 C   0  0  0  0  0  0  0  0  0  0  0  0
    8.8070   40.1904   34.2076 O   0  0  0  0  0  0  0  0  0  0  0  0
   11.2367   40.7901   33.3660 O   0  0  0  0  0  0  0  0  0  0  0  0
   10.9141   40.6850   31.9931 C   0  0  0  0  0  0  0  0  0  0  0  0
   11.5166   39.3773   31.4393 C   0  0  0  0  0  0  0  0  0  0  0  0
   12.7471   39.0855   32.0739 O   0  0  0  0  0  0  0  0  0  0  0  0
   10.6047   38.1867   31.6669 C   0  0  0  0  0  0  0  0  0  0  0  0
   12.9345   37.6791   32.0282 C   0  0  0  0  0  0  0  0  0  0  0  0
    9.6378   38.0917   30.6488 O   0  0  0  0  0  0  0  0  0  0  0  0
   11.5761   37.0129   31.7056 C   0  0  0  0  0  0  0  0  0  0  0  0
   13.4909   37.2177   33.3233 N   0  0  0  0  0  0  0  0  0  0  0  0
   11.6234   36.3371   30.4684 O   0  0  0  0  0  0  0  0  0  0  0  0
   14.4765   36.3272   33.5727 C   0  0  0  0  0  0  0  0  0  0  0  0
   13.1182   37.6316   34.5685 C   0  0  0  0  0  0  0  0  0  0  0  0
   15.2066   35.6137   32.6739 N   0  0  0  0  0  0  0  0  0  0  0  0
   14.6735   36.2276   34.9182 C   0  0  0  0  0  0  0  0  0  0  0  0
   13.8227   37.0457   35.5781 N   0  0  0  0  0  0  0  0  0  0  0  0
   16.1638   34.7593   33.1548 C   0  0  0  0  0  0  0  0  0  0  0  0
   15.6517   35.3492   35.4131 C   0  0  0  0  0  0  0  0  0  0  0  0
   16.3792   34.6309   34.5043 N   0  0  0  0  0  0  0  0  0  0  0  0
   15.9002   35.1934   36.8090 N   0  0  0  0  0  0  0  0  0  0  0  0
    9.8121   44.9943   32.1504 H   0  0  0  0  0  0  0  0  0  0  0  0
   11.2755   46.1181   34.4979 H   0  0  0  0  0  0  0  0  0  0  0  0
   11.9214   45.7040   32.9812 H   0  0  0  0  0  0  0  0  0  0  0  0
    8.7883   45.7800   34.9677 H   0  0  0  0  0  0  0  0  0  0  0  0
    7.8324   44.9393   33.6982 H   0  0  0  0  0  0  0  0  0  0  0  0
    6.9321   48.9005   31.8240 H   0  0  0  0  0  0  0  0  0  0  0  0
    6.9265   47.9347   30.3157 H   0  0  0  0  0  0  0  0  0  0  0  0
    8.6530   50.5690   31.9664 H   0  0  0  0  0  0  0  0  0  0  0  0
    9.3590   47.0777   29.5305 H   0  0  0  0  0  0  0  0  0  0  0  0
   10.8406   51.4806   31.2765 H   0  0  0  0  0  0  0  0  0  0  0  0
   11.5462   48.0063   28.8526 H   0  0  0  0  0  0  0  0  0  0  0  0
   12.2907   50.2055   29.7219 H   0  0  0  0  0  0  0  0  0  0  0  0
    9.8242   40.7213   31.7563 H   0  0  0  0  0  0  0  0  0  0  0  0
   11.3873   41.5416   31.4671 H   0  0  0  0  0  0  0  0  0  0  0  0
   11.6986   39.5013   30.3467 H   0  0  0  0  0  0  0  0  0  0  0  0
   10.1095   38.2771   32.6628 H   0  0  0  0  0  0  0  0  0  0  0  0
   13.6672   37.4545   31.2213 H   0  0  0  0  0  0  0  0  0  0  0  0
    8.9779   37.4157   30.9533 H   0  0  0  0  0  0  0  0  0  0  0  0
   11.2861   36.3041   32.5176 H   0  0  0  0  0  0  0  0  0  0  0  0
   10.8690   35.6918   30.4657 H   0  0  0  0  0  0  0  0  0  0  0  0
   12.3356   38.3587   34.7439 H   0  0  0  0  0  0  0  0  0  0  0  0
   16.7572   34.1786   32.4621 H   0  0  0  0  0  0  0  0  0  0  0  0
   16.6361   34.5315   37.1415 H   0  0  0  0  0  0  0  0  0  0  0  0
   15.3530   35.7358   37.5138 H   0  0  0  0  0  0  0  0  0  0  0  0
  1  2  2  0
  1  3  1  0
  3  4  1  0
  4  5  1  0
  6  1  1  0
  7  6  1  0
  6  8  1  0
  8  9  1  0
  9 10  1  0
  9 11  2  0
 10 12  1  0
 12 13  1  0
 13 14  2  0
 15 13  1  0
 14 16  1  0
 17 15  2  0
 16 18  2  0
 18 17  1  0
  4 19  2  0
  4 20  1  0
 21 20  1  0
 21 22  1  0
 22 23  1  0
 22 24  1  0
 23 25  1  0
 24 26  1  0
 24 27  1  0
 27 25  1  0
 25 28  1  0
 27 29  1  0
 30 28  1  0
 31 28  1  0
 32 30  2  0
 30 33  1  0
 34 31  2  0
 35 32  1  0
 33 36  2  0
 33 34  1  0
 37 35  2  0
 37 36  1  0
 36 38  1  0
  6 39  1  6
  7 40  1  0
  7 41  1  0
  8 42  1  0
  8 43  1  0
 12 44  1  0
 12 45  1  0
 14 46  1  0
 15 47  1  0
 16 48  1  0
 17 49  1  0
 18 50  1  0
 21 51  1  0
 21 52  1  0
 22 53  1  0
 24 54  1  0
 25 55  1  0
 26 56  1  0
 27 57  1  0
 29 58  1  0
 31 59  1  0
 35 60  1  0
 38 61  1  0
 38 62  1  0
M  CHG  1   5  -1
M  END
>  <EmbedRMS>  (9) 
0.08951841514500652

$$$$

     RDKit          3D

 62 65  0  0  0  0  0  0  0  0999 V2000
   10.2808   43.7760   33.8097 C   0  0  0  0  0  0  0  0  0  0  0  0
   11.4068   43.5917   34.3592 O   0  0  0  0  0  0  0  0  0  0  0  0
    9.3683   42.7300   33.6996 O   0  0  0  0  0  0  0  0  0  0  0  0
    9.8870   41.2337   34.2833 P   0  0  0  0  0  5  0  0  0  0  0  0
   10.3675   41.4693   35.8737 O   0  0  0  0  0  1  0  0  0  0  0  0
    9.9523   45.1160   33.2454 C   0  0  2  0  0  0  0  0  0  0  0  0
   11.0747   46.0259   33.4813 N   0  0  0  0  0  0  0  0  0  0  0  0
    8.6545   45.6910   33.8551 C   0  0  0  0  0  0  0  0  0  0  0  0
    7.4405   44.9340   33.4089 C   0  0  0  0  0  0  0  0  0  0  0  0
    7.0720   44.9584   32.0591 O   0  0  0  0  0  0  0  0  0  0  0  0
    6.7720   44.2707   34.2481 O   0  0  0  0  0  0  0  0  0  0  0  0
    5.9396   44.2615   31.5445 C   0  0  0  0  0  0  0  0  0  0  0  0
    4.6660   44.9305   31.9843 C   0  0  0  0  0  0  0  0  0  0  0  0
    4.3466   46.2119   31.5067 C   0  0  0  0  0  0  0  0  0  0  0  0
    3.7997   44.2971   32.8912 C   0  0  0  0  0  0  0  0  0  0  0  0
    3.1730   46.8470   31.9249 C   0  0  0  0  0  0  0  0  0  0  0  0
    2.6271   44.9358   33.3070 C   0  0  0  0  0  0  0  0  0  0  0  0
    2.3137   46.2093   32.8239 C   0  0  0  0  0  0  0  0  0  0  0  0
    8.8088   40.1914   34.2081 O   0  0  0  0  0  0  0  0  0  0  0  0
   11.2380   40.7904   33.3657 O   0  0  0  0  0  0  0  0  0  0  0  0
   10.9144   40.6850   31.9931 C   0  0  0  0  0  0  0  0  0  0  0  0
   11.5166   39.3773   31.4392 C   0  0  0  0  0  0  0  0  0  0  0  0
   12.7472   39.0854   32.0738 O   0  0  0  0  0  0  0  0  0  0  0  0
   10.6047   38.1868   31.6670 C   0  0  0  0  0  0  0  0  0  0  0  0
   12.9345   37.6790   32.0282 C   0  0  0  0  0  0  0  0  0  0  0  0
    9.6377   38.0918   30.6489 O   0  0  0  0  0  0  0  0  0  0  0  0
   11.5760   37.0129   31.7057 C   0  0  0  0  0  0  0  0  0  0  0  0
   13.4909   37.2177   33.3233 N   0  0  0  0  0  0  0  0  0  0  0  0
   11.6233   36.3371   30.4684 O   0  0  0  0  0  0  0  0  0  0  0  0
   14.4765   36.3272   33.5727 C   0  0  0  0  0  0  0  0  0  0  0  0
   13.1182   37.6315   34.5685 C   0  0  0  0  0  0  0  0  0  0  0  0
   15.2066   35.6137   32.6739 N   0  0  0  0  0  0  0  0  0  0  0  0
   14.6736   36.2276   34.9182 C   0  0  0  0  0  0  0  0  0  0  0  0
   13.8227   37.0457   35.5781 N   0  0  0  0  0  0  0  0  0  0  0  0
   16.1638   34.7593   33.1547 C   0  0  0  0  0  0  0  0  0  0  0  0
   15.6517   35.3493   35.4131 C   0  0  0  0  0  0  0  0  0  0  0  0
   16.3792   34.6309   34.5043 N   0  0  0  0  0  0  0  0  0  0  0  0
   15.9002   35.1934   36.8090 N   0  0  0  0  0  0  0  0  0  0  0  0
    9.8231   45.0001   32.1461 H   0  0  0  0  0  0  0  0  0  0  0  0
   10.9083   46.9081   32.9441 H   0  0  0  0  0  0  0  0  0  0  0  0
   11.1117   46.2832   34.4955 H   0  0  0  0  0  0  0  0  0  0  0  0
    8.5312   46.7469   33.5319 H   0  0  0  0  0  0  0  0  0  0  0  0
    8.7205   45.6866   34.9660 H   0  0  0  0  0  0  0  0  0  0  0  0
    5.9746   43.1961   31.8621 H   0  0  0  0  0  0  0  0  0  0  0  0
    5.9884   44.2756   30.4352 H   0  0  0  0  0  0  0  0  0  0  0  0
    5.0072   46.7174   30.8131 H   0  0  0  0  0  0  0  0  0  0  0  0
    4.0317   43.3125   33.2778 H   0  0  0  0  0  0  0  0  0  0  0  0
    2.9307   47.8342   31.5532 H   0  0  0  0  0  0  0  0  0  0  0  0
    1.9622   44.4441   34.0053 H   0  0  0  0  0  0  0  0  0  0  0  0
    1.4061   46.7024   33.1472 H   0  0  0  0  0  0  0  0  0  0  0  0
   11.3871   41.5415   31.4666 H   0  0  0  0  0  0  0  0  0  0  0  0
    9.8243   40.7213   31.7569 H   0  0  0  0  0  0  0  0  0  0  0  0
   11.6986   39.5012   30.3466 H   0  0  0  0  0  0  0  0  0  0  0  0
   10.1096   38.2772   32.6629 H   0  0  0  0  0  0  0  0  0  0  0  0
   13.6672   37.4543   31.2212 H   0  0  0  0  0  0  0  0  0  0  0  0
    8.9777   37.4160   30.9535 H   0  0  0  0  0  0  0  0  0  0  0  0
   11.2860   36.3041   32.5177 H   0  0  0  0  0  0  0  0  0  0  0  0
   10.8688   35.6919   30.4657 H   0  0  0  0  0  0  0  0  0  0  0  0
   12.3355   38.3586   34.7439 H   0  0  0  0  0  0  0  0  0  0  0  0
   16.7572   34.1786   32.4621 H   0  0  0  0  0  0  0  0  0  0  0  0
   15.3530   35.7358   37.5138 H   0  0  0  0  0  0  0  0  0  0  0  0
   16.6361   34.5315   37.1415 H   0  0  0  0  0  0  0  0  0  0  0  0
  1  2  2  0
  1  3  1  0
  3  4  1  0
  4  5  1  0
  6  1  1  0
  7  6  1  0
  6  8  1  0
  8  9  1  0
  9 10  1  0
  9 11  2  0
 10 12  1  0
 12 13  1  0
 13 14  2  0
 15 13  1  0
 14 16  1  0
 17 15  2  0
 16 18  2  0
 18 17  1  0
  4 19  2  0
  4 20  1  0
 21 20  1  0
 21 22  1  0
 22 23  1  0
 22 24  1  0
 23 25  1  0
 24 26  1  0
 24 27  1  0
 27 25  1  0
 25 28  1  0
 27 29  1  0
 30 28  1  0
 31 28  1  0
 32 30  2  0
 30 33  1  0
 34 31  2  0
 35 32  1  0
 33 36  2  0
 33 34  1  0
 37 35  2  0
 37 36  1  0
 36 38  1  0
  6 39  1  6
  7 40  1  0
  7 41  1  0
  8 42  1  0
  8 43  1  0
 12 44  1  0
 12 45  1  0
 14 46  1  0
 15 47  1  0
 16 48  1  0
 17 49  1  0
 18 50  1  0
 21 51  1  0
 21 52  1  0
 22 53  1  0
 24 54  1  0
 25 55  1  0
 26 56  1  0
 27 57  1  0
 29 58  1  0
 31 59  1  0
 35 60  1  0
 38 61  1  0
 38 62  1  0
M  CHG  1   5  -1
M  END
>  <EmbedRMS>  (10) 
0.08895525552886813

$$$$

     RDKit          3D

 62 65  0  0  0  0  0  0  0  0999 V2000
   10.2863   43.7710   33.8098 C   0  0  0  0  0  0  0  0  0  0  0  0
   11.4101   43.5817   34.3615 O   0  0  0  0  0  0  0  0  0  0  0  0
    9.3668   42.7308   33.7020 O   0  0  0  0  0  0  0  0  0  0  0  0
    9.8846   41.2330   34.2845 P   0  0  0  0  0  5  0  0  0  0  0  0
   10.3648   41.4677   35.8752 O   0  0  0  0  0  1  0  0  0  0  0  0
    9.9606   45.1126   33.2476 C   0  0  2  0  0  0  0  0  0  0  0  0
   11.0657   46.0479   33.4747 N   0  0  0  0  0  0  0  0  0  0  0  0
    8.6653   45.6569   33.8730 C   0  0  0  0  0  0  0  0  0  0  0  0
    8.2785   46.9664   33.2591 C   0  0  0  0  0  0  0  0  0  0  0  0
    8.7079   48.1582   33.8537 O   0  0  0  0  0  0  0  0  0  0  0  0
    7.6063   46.9829   32.1919 O   0  0  0  0  0  0  0  0  0  0  0  0
    8.3776   49.4492   33.3467 C   0  0  0  0  0  0  0  0  0  0  0  0
    6.9259   49.7555   33.5958 C   0  0  0  0  0  0  0  0  0  0  0  0
    6.4646   49.9416   34.9091 C   0  0  0  0  0  0  0  0  0  0  0  0
    6.0157   49.8312   32.5281 C   0  0  0  0  0  0  0  0  0  0  0  0
    5.1130   50.2082   35.1496 C   0  0  0  0  0  0  0  0  0  0  0  0
    4.6649   50.0979   32.7730 C   0  0  0  0  0  0  0  0  0  0  0  0
    4.2140   50.2870   34.0824 C   0  0  0  0  0  0  0  0  0  0  0  0
    8.8073   40.1902   34.2075 O   0  0  0  0  0  0  0  0  0  0  0  0
   11.2377   40.7903   33.3696 O   0  0  0  0  0  0  0  0  0  0  0  0
   10.9187   40.6904   31.9961 C   0  0  0  0  0  0  0  0  0  0  0  0
   11.5174   39.3823   31.4411 C   0  0  0  0  0  0  0  0  0  0  0  0
   12.7494   39.0893   32.0756 O   0  0  0  0  0  0  0  0  0  0  0  0
   10.6036   38.1899   31.6659 C   0  0  0  0  0  0  0  0  0  0  0  0
   12.9401   37.6834   32.0276 C   0  0  0  0  0  0  0  0  0  0  0  0
    9.6376   38.0784   30.6474 O   0  0  0  0  0  0  0  0  0  0  0  0
   11.5804   37.0203   31.6937 C   0  0  0  0  0  0  0  0  0  0  0  0
   13.4902   37.2177   33.3237 N   0  0  0  0  0  0  0  0  0  0  0  0
   11.6118   36.3193   30.4680 O   0  0  0  0  0  0  0  0  0  0  0  0
   14.4759   36.3271   33.5731 C   0  0  0  0  0  0  0  0  0  0  0  0
   13.1176   37.6317   34.5688 C   0  0  0  0  0  0  0  0  0  0  0  0
   15.2064   35.6141   32.6742 N   0  0  0  0  0  0  0  0  0  0  0  0
   14.6729   36.2274   34.9184 C   0  0  0  0  0  0  0  0  0  0  0  0
   13.8221   37.0458   35.5783 N   0  0  0  0  0  0  0  0  0  0  0  0
   16.1637   34.7597   33.1549 C   0  0  0  0  0  0  0  0  0  0  0  0
   15.6514   35.3493   35.4133 C   0  0  0  0  0  0  0  0  0  0  0  0
   16.3791   34.6312   34.5044 N   0  0  0  0  0  0  0  0  0  0  0  0
   15.9001   35.1935   36.8091 N   0  0  0  0  0  0  0  0  0  0  0  0
    9.8088   44.9958   32.1516 H   0  0  0  0  0  0  0  0  0  0  0  0
   11.2756   46.1187   34.4980 H   0  0  0  0  0  0  0  0  0  0  0  0
   11.9219   45.7017   32.9825 H   0  0  0  0  0  0  0  0  0  0  0  0
    7.8354   44.9327   33.7186 H   0  0  0  0  0  0  0  0  0  0  0  0
    8.7978   45.7909   34.9690 H   0  0  0  0  0  0  0  0  0  0  0  0
    8.6295   49.5076   32.2649 H   0  0  0  0  0  0  0  0  0  0  0  0
    8.9997   50.2056   33.8700 H   0  0  0  0  0  0  0  0  0  0  0  0
    7.1513   49.8783   35.7442 H   0  0  0  0  0  0  0  0  0  0  0  0
    6.3495   49.6821   31.5088 H   0  0  0  0  0  0  0  0  0  0  0  0
    4.7624   50.3520   36.1634 H   0  0  0  0  0  0  0  0  0  0  0  0
    3.9672   50.1563   31.9476 H   0  0  0  0  0  0  0  0  0  0  0  0
    3.1681   50.4926   34.2701 H   0  0  0  0  0  0  0  0  0  0  0  0
    9.8308   40.7397   31.7557 H   0  0  0  0  0  0  0  0  0  0  0  0
   11.3997   41.5454   31.4747 H   0  0  0  0  0  0  0  0  0  0  0  0
   11.6989   39.5091   30.3489 H   0  0  0  0  0  0  0  0  0  0  0  0
   10.1130   38.2588   32.6664 H   0  0  0  0  0  0  0  0  0  0  0  0
   13.6800   37.4628   31.2265 H   0  0  0  0  0  0  0  0  0  0  0  0
    8.8952   38.6907   30.8891 H   0  0  0  0  0  0  0  0  0  0  0  0
   11.2830   36.3059   32.4929 H   0  0  0  0  0  0  0  0  0  0  0  0
   11.8859   36.9589   29.7593 H   0  0  0  0  0  0  0  0  0  0  0  0
   12.3360   38.3600   34.7441 H   0  0  0  0  0  0  0  0  0  0  0  0
   16.7572   34.1793   32.4621 H   0  0  0  0  0  0  0  0  0  0  0  0
   15.3528   35.7357   37.5140 H   0  0  0  0  0  0  0  0  0  0  0  0
   16.6362   34.5318   37.1416 H   0  0  0  0  0  0  0  0  0  0  0  0
  1  2  2  0
  1  3  1  0
  3  4  1  0
  4  5  1  0
  6  1  1  0
  7  6  1  0
  6  8  1  0
  8  9  1  0
  9 10  1  0
  9 11  2  0
 10 12  1  0
 12 13  1  0
 13 14  2  0
 15 13  1  0
 14 16  1  0
 17 15  2  0
 16 18  2  0
 18 17  1  0
  4 19  2  0
  4 20  1  0
 21 20  1  0
 21 22  1  0
 22 23  1  0
 22 24  1  0
 23 25  1  0
 24 26  1  0
 24 27  1  0
 27 25  1  0
 25 28  1  0
 27 29  1  0
 30 28  1  0
 31 28  1  0
 32 30  2  0
 30 33  1  0
 34 31  2  0
 35 32  1  0
 33 36  2  0
 33 34  1  0
 37 35  2  0
 37 36  1  0
 36 38  1  0
  6 39  1  6
  7 40  1  0
  7 41  1  0
  8 42  1  0
  8 43  1  0
 12 44  1  0
 12 45  1  0
 14 46  1  0
 15 47  1  0
 16 48  1  0
 17 49  1  0
 18 50  1  0
 21 51  1  0
 21 52  1  0
 22 53  1  0
 24 54  1  0
 25 55  1  0
 26 56  1  0
 27 57  1  0
 29 58  1  0
 31 59  1  0
 35 60  1  0
 38 61  1  0
 38 62  1  0
M  CHG  1   5  -1
M  END
>  <EmbedRMS>  (11) 
0.0888383548827996

$$$$

     RDKit          3D

 62 65  0  0  0  0  0  0  0  0999 V2000
   10.2828   43.7755   33.8078 C   0  0  0  0  0  0  0  0  0  0  0  0
   11.4085   43.5914   34.3578 O   0  0  0  0  0  0  0  0  0  0  0  0
    9.3663   42.7321   33.7019 O   0  0  0  0  0  0  0  0  0  0  0  0
    9.8856   41.2349   34.2847 P   0  0  0  0  0  5  0  0  0  0  0  0
   10.3666   41.4697   35.8750 O   0  0  0  0  0  1  0  0  0  0  0  0
    9.9538   45.1112   33.2431 C   0  0  2  0  0  0  0  0  0  0  0  0
   11.0724   46.0271   33.4847 N   0  0  0  0  0  0  0  0  0  0  0  0
    8.6389   45.6436   33.8517 C   0  0  0  0  0  0  0  0  0  0  0  0
    8.2423   46.9440   33.2270 C   0  0  0  0  0  0  0  0  0  0  0  0
    7.7857   46.9577   31.9047 O   0  0  0  0  0  0  0  0  0  0  0  0
    8.3634   48.0169   33.8792 O   0  0  0  0  0  0  0  0  0  0  0  0
    7.6016   48.1570   31.1569 C   0  0  0  0  0  0  0  0  0  0  0  0
    8.9349   48.7770   30.8381 C   0  0  0  0  0  0  0  0  0  0  0  0
    9.8441   48.0950   30.0131 C   0  0  0  0  0  0  0  0  0  0  0  0
    9.3002   50.0162   31.3899 C   0  0  0  0  0  0  0  0  0  0  0  0
   11.0986   48.6485   29.7393 C   0  0  0  0  0  0  0  0  0  0  0  0
   10.5555   50.5668   31.1127 C   0  0  0  0  0  0  0  0  0  0  0  0
   11.4538   49.8837   30.2880 C   0  0  0  0  0  0  0  0  0  0  0  0
    8.8084   40.1917   34.2088 O   0  0  0  0  0  0  0  0  0  0  0  0
   11.2372   40.7915   33.3685 O   0  0  0  0  0  0  0  0  0  0  0  0
   10.9152   40.6900   31.9957 C   0  0  0  0  0  0  0  0  0  0  0  0
   11.5269   39.3899   31.4374 C   0  0  0  0  0  0  0  0  0  0  0  0
   12.7506   39.0917   32.0840 O   0  0  0  0  0  0  0  0  0  0  0  0
   10.6121   38.1916   31.6452 C   0  0  0  0  0  0  0  0  0  0  0  0
   12.9429   37.6853   32.0295 C   0  0  0  0  0  0  0  0  0  0  0  0
    9.6069   38.0858   30.6603 O   0  0  0  0  0  0  0  0  0  0  0  0
   11.5845   37.0186   31.6880 C   0  0  0  0  0  0  0  0  0  0  0  0
   13.4899   37.2164   33.3250 N   0  0  0  0  0  0  0  0  0  0  0  0
   11.6202   36.3063   30.4693 O   0  0  0  0  0  0  0  0  0  0  0  0
   14.4759   36.3263   33.5738 C   0  0  0  0  0  0  0  0  0  0  0  0
   13.1176   37.6307   34.5699 C   0  0  0  0  0  0  0  0  0  0  0  0
   15.2065   35.6139   32.6746 N   0  0  0  0  0  0  0  0  0  0  0  0
   14.6731   36.2267   34.9191 C   0  0  0  0  0  0  0  0  0  0  0  0
   13.8224   37.0450   35.5792 N   0  0  0  0  0  0  0  0  0  0  0  0
   16.1640   34.7596   33.1551 C   0  0  0  0  0  0  0  0  0  0  0  0
   15.6517   35.3489   35.4136 C   0  0  0  0  0  0  0  0  0  0  0  0
   16.3795   34.6310   34.5046 N   0  0  0  0  0  0  0  0  0  0  0  0
   15.9006   35.1931   36.8094 N   0  0  0  0  0  0  0  0  0  0  0  0
    9.8230   44.9843   32.1450 H   0  0  0  0  0  0  0  0  0  0  0  0
   10.9453   46.8826   32.8964 H   0  0  0  0  0  0  0  0  0  0  0  0
   11.0724   46.3302   34.4866 H   0  0  0  0  0  0  0  0  0  0  0  0
    8.7468   45.7674   34.9522 H   0  0  0  0  0  0  0  0  0  0  0  0
    7.8196   44.9140   33.6730 H   0  0  0  0  0  0  0  0  0  0  0  0
    7.0842   47.9079   30.2065 H   0  0  0  0  0  0  0  0  0  0  0  0
    6.9456   48.8574   31.7190 H   0  0  0  0  0  0  0  0  0  0  0  0
    9.5828   47.1332   29.5891 H   0  0  0  0  0  0  0  0  0  0  0  0
    8.6181   50.5530   32.0373 H   0  0  0  0  0  0  0  0  0  0  0  0
   11.7963   48.1184   29.1040 H   0  0  0  0  0  0  0  0  0  0  0  0
   10.8332   51.5217   31.5399 H   0  0  0  0  0  0  0  0  0  0  0  0
   12.4256   50.3105   30.0761 H   0  0  0  0  0  0  0  0  0  0  0  0
    9.8250   40.7189   31.7590 H   0  0  0  0  0  0  0  0  0  0  0  0
   11.3817   41.5527   31.4737 H   0  0  0  0  0  0  0  0  0  0  0  0
   11.7318   39.5338   30.3520 H   0  0  0  0  0  0  0  0  0  0  0  0
   10.1214   38.2683   32.6413 H   0  0  0  0  0  0  0  0  0  0  0  0
   13.6882   37.4710   31.2319 H   0  0  0  0  0  0  0  0  0  0  0  0
   10.0256   38.1751   29.7656 H   0  0  0  0  0  0  0  0  0  0  0  0
   11.2795   36.3124   32.4916 H   0  0  0  0  0  0  0  0  0  0  0  0
   11.9872   36.9100   29.7715 H   0  0  0  0  0  0  0  0  0  0  0  0
   12.3365   38.3596   34.7453 H   0  0  0  0  0  0  0  0  0  0  0  0
   16.7576   34.1794   32.4622 H   0  0  0  0  0  0  0  0  0  0  0  0
   16.6368   34.5315   37.1418 H   0  0  0  0  0  0  0  0  0  0  0  0
   15.3532   35.7351   37.5143 H   0  0  0  0  0  0  0  0  0  0  0  0
  1  2  2  0
  1  3  1  0
  3  4  1  0
  4  5  1  0
  6  1  1  0
  7  6  1  0
  6  8  1  0
  8  9  1  0
  9 10  1  0
  9 11  2  0
 10 12  1  0
 12 13  1  0
 13 14  2  0
 15 13  1  0
 14 16  1  0
 17 15  2  0
 16 18  2  0
 18 17  1  0
  4 19  2  0
  4 20  1  0
 21 20  1  0
 21 22  1  0
 22 23  1  0
 22 24  1  0
 23 25  1  0
 24 26  1  0
 24 27  1  0
 27 25  1  0
 25 28  1  0
 27 29  1  0
 30 28  1  0
 31 28  1  0
 32 30  2  0
 30 33  1  0
 34 31  2  0
 35 32  1  0
 33 36  2  0
 33 34  1  0
 37 35  2  0
 37 36  1  0
 36 38  1  0
  6 39  1  6
  7 40  1  0
  7 41  1  0
  8 42  1  0
  8 43  1  0
 12 44  1  0
 12 45  1  0
 14 46  1  0
 15 47  1  0
 16 48  1  0
 17 49  1  0
 18 50  1  0
 21 51  1  0
 21 52  1  0
 22 53  1  0
 24 54  1  0
 25 55  1  0
 26 56  1  0
 27 57  1  0
 29 58  1  0
 31 59  1  0
 35 60  1  0
 38 61  1  0
 38 62  1  0
M  CHG  1   5  -1
M  END
>  <EmbedRMS>  (12) 
0.0866864387537153

$$$$

     RDKit          3D

 62 65  0  0  0  0  0  0  0  0999 V2000
   10.2811   43.7751   33.8077 C   0  0  0  0  0  0  0  0  0  0  0  0
   11.4039   43.5912   34.3640 O   0  0  0  0  0  0  0  0  0  0  0  0
    9.3696   42.7286   33.6944 O   0  0  0  0  0  0  0  0  0  0  0  0
    9.8871   41.2334   34.2823 P   0  0  0  0  0  5  0  0  0  0  0  0
   10.3661   41.4706   35.8731 O   0  0  0  0  0  1  0  0  0  0  0  0
    9.9452   45.1234   33.2619 C   0  0  2  0  0  0  0  0  0  0  0  0
   11.0812   46.0236   33.4684 N   0  0  0  0  0  0  0  0  0  0  0  0
    8.6970   45.7031   33.9611 C   0  0  0  0  0  0  0  0  0  0  0  0
    7.4383   45.0131   33.5310 C   0  0  0  0  0  0  0  0  0  0  0  0
    6.8971   44.0043   34.3323 O   0  0  0  0  0  0  0  0  0  0  0  0
    6.8939   45.3281   32.4375 O   0  0  0  0  0  0  0  0  0  0  0  0
    5.7089   43.3017   33.9865 C   0  0  0  0  0  0  0  0  0  0  0  0
    5.4606   42.2226   34.9991 C   0  0  0  0  0  0  0  0  0  0  0  0
    5.0355   42.5603   36.2942 C   0  0  0  0  0  0  0  0  0  0  0  0
    5.6954   40.8747   34.6803 C   0  0  0  0  0  0  0  0  0  0  0  0
    4.8362   41.5616   37.2527 C   0  0  0  0  0  0  0  0  0  0  0  0
    5.4965   39.8791   35.6420 C   0  0  0  0  0  0  0  0  0  0  0  0
    5.0662   40.2220   36.9268 C   0  0  0  0  0  0  0  0  0  0  0  0
    8.8112   40.1892   34.2076 O   0  0  0  0  0  0  0  0  0  0  0  0
   11.2385   40.7900   33.3659 O   0  0  0  0  0  0  0  0  0  0  0  0
   10.9150   40.6849   31.9932 C   0  0  0  0  0  0  0  0  0  0  0  0
   11.5168   39.3772   31.4392 C   0  0  0  0  0  0  0  0  0  0  0  0
   12.7474   39.0852   32.0736 O   0  0  0  0  0  0  0  0  0  0  0  0
   10.6047   38.1868   31.6671 C   0  0  0  0  0  0  0  0  0  0  0  0
   12.9345   37.6789   32.0282 C   0  0  0  0  0  0  0  0  0  0  0  0
    9.6377   38.0919   30.6491 O   0  0  0  0  0  0  0  0  0  0  0  0
   11.5759   37.0129   31.7057 C   0  0  0  0  0  0  0  0  0  0  0  0
   13.4909   37.2176   33.3233 N   0  0  0  0  0  0  0  0  0  0  0  0
   11.6231   36.3371   30.4685 O   0  0  0  0  0  0  0  0  0  0  0  0
   14.4765   36.3271   33.5727 C   0  0  0  0  0  0  0  0  0  0  0  0
   13.1181   37.6315   34.5685 C   0  0  0  0  0  0  0  0  0  0  0  0
   15.2066   35.6137   32.6739 N   0  0  0  0  0  0  0  0  0  0  0  0
   14.6735   36.2276   34.9182 C   0  0  0  0  0  0  0  0  0  0  0  0
   13.8227   37.0457   35.5781 N   0  0  0  0  0  0  0  0  0  0  0  0
   16.1638   34.7593   33.1548 C   0  0  0  0  0  0  0  0  0  0  0  0
   15.6517   35.3493   35.4131 C   0  0  0  0  0  0  0  0  0  0  0  0
   16.3792   34.6309   34.5043 N   0  0  0  0  0  0  0  0  0  0  0  0
   15.9002   35.1934   36.8090 N   0  0  0  0  0  0  0  0  0  0  0  0
    9.7508   45.0290   32.1691 H   0  0  0  0  0  0  0  0  0  0  0  0
   11.8858   45.6776   32.8950 H   0  0  0  0  0  0  0  0  0  0  0  0
   10.8422   46.9594   33.0665 H   0  0  0  0  0  0  0  0  0  0  0  0
    8.5947   46.7825   33.7146 H   0  0  0  0  0  0  0  0  0  0  0  0
    8.8065   45.6277   35.0654 H   0  0  0  0  0  0  0  0  0  0  0  0
    4.8491   44.0063   33.9739 H   0  0  0  0  0  0  0  0  0  0  0  0
    5.8145   42.8661   32.9684 H   0  0  0  0  0  0  0  0  0  0  0  0
    4.8623   43.5958   36.5607 H   0  0  0  0  0  0  0  0  0  0  0  0
    6.0345   40.5941   33.6909 H   0  0  0  0  0  0  0  0  0  0  0  0
    4.5070   41.8265   38.2491 H   0  0  0  0  0  0  0  0  0  0  0  0
    5.6788   38.8420   35.3918 H   0  0  0  0  0  0  0  0  0  0  0  0
    4.9137   39.4504   37.6702 H   0  0  0  0  0  0  0  0  0  0  0  0
    9.8249   40.7214   31.7566 H   0  0  0  0  0  0  0  0  0  0  0  0
   11.3880   41.5414   31.4669 H   0  0  0  0  0  0  0  0  0  0  0  0
   11.6987   39.5011   30.3466 H   0  0  0  0  0  0  0  0  0  0  0  0
   10.1096   38.2774   32.6631 H   0  0  0  0  0  0  0  0  0  0  0  0
   13.6671   37.4540   31.2212 H   0  0  0  0  0  0  0  0  0  0  0  0
    8.9768   37.4172   30.9544 H   0  0  0  0  0  0  0  0  0  0  0  0
   11.2859   36.3041   32.5177 H   0  0  0  0  0  0  0  0  0  0  0  0
   10.8684   35.6922   30.4656 H   0  0  0  0  0  0  0  0  0  0  0  0
   12.3354   38.3586   34.7439 H   0  0  0  0  0  0  0  0  0  0  0  0
   16.7572   34.1786   32.4621 H   0  0  0  0  0  0  0  0  0  0  0  0
   16.6361   34.5315   37.1416 H   0  0  0  0  0  0  0  0  0  0  0  0
   15.3530   35.7358   37.5138 H   0  0  0  0  0  0  0  0  0  0  0  0
  1  2  2  0
  1  3  1  0
  3  4  1  0
  4  5  1  0
  6  1  1  0
  7  6  1  0
  6  8  1  0
  8  9  1  0
  9 10  1  0
  9 11  2  0
 10 12  1  0
 12 13  1  0
 13 14  2  0
 15 13  1  0
 14 16  1  0
 17 15  2  0
 16 18  2  0
 18 17  1  0
  4 19  2  0
  4 20  1  0
 21 20  1  0
 21 22  1  0
 22 23  1  0
 22 24  1  0
 23 25  1  0
 24 26  1  0
 24 27  1  0
 27 25  1  0
 25 28  1  0
 27 29  1  0
 30 28  1  0
 31 28  1  0
 32 30  2  0
 30 33  1  0
 34 31  2  0
 35 32  1  0
 33 36  2  0
 33 34  1  0
 37 35  2  0
 37 36  1  0
 36 38  1  0
  6 39  1  6
  7 40  1  0
  7 41  1  0
  8 42  1  0
  8 43  1  0
 12 44  1  0
 12 45  1  0
 14 46  1  0
 15 47  1  0
 16 48  1  0
 17 49  1  0
 18 50  1  0
 21 51  1  0
 21 52  1  0
 22 53  1  0
 24 54  1  0
 25 55  1  0
 26 56  1  0
 27 57  1  0
 29 58  1  0
 31 59  1  0
 35 60  1  0
 38 61  1  0
 38 62  1  0
M  CHG  1   5  -1
M  END
>  <EmbedRMS>  (13) 
0.08926650299859175

$$$$

     RDKit          3D

 62 65  0  0  0  0  0  0  0  0999 V2000
   10.2830   43.7707   33.8091 C   0  0  0  0  0  0  0  0  0  0  0  0
   11.4062   43.5814   34.3625 O   0  0  0  0  0  0  0  0  0  0  0  0
    9.3648   42.7296   33.7014 O   0  0  0  0  0  0  0  0  0  0  0  0
    9.8857   41.2334   34.2853 P   0  0  0  0  0  5  0  0  0  0  0  0
   10.3664   41.4699   35.8754 O   0  0  0  0  0  1  0  0  0  0  0  0
    9.9655   45.1132   33.2374 C   0  0  2  0  0  0  0  0  0  0  0  0
   11.0669   46.0464   33.4829 N   0  0  0  0  0  0  0  0  0  0  0  0
    8.6663   45.6889   33.8318 C   0  0  0  0  0  0  0  0  0  0  0  0
    7.4457   45.0330   33.2604 C   0  0  0  0  0  0  0  0  0  0  0  0
    6.6306   44.2481   34.0848 O   0  0  0  0  0  0  0  0  0  0  0  0
    7.1517   45.2171   32.0478 O   0  0  0  0  0  0  0  0  0  0  0  0
    5.4471   43.5941   33.6294 C   0  0  0  0  0  0  0  0  0  0  0  0
    5.7653   42.2068   33.1412 C   0  0  0  0  0  0  0  0  0  0  0  0
    6.2826   42.0063   31.8504 C   0  0  0  0  0  0  0  0  0  0  0  0
    5.5558   41.0966   33.9771 C   0  0  0  0  0  0  0  0  0  0  0  0
    6.5692   40.7143   31.3986 C   0  0  0  0  0  0  0  0  0  0  0  0
    5.8303   39.8052   33.5162 C   0  0  0  0  0  0  0  0  0  0  0  0
    6.3369   39.6141   32.2282 C   0  0  0  0  0  0  0  0  0  0  0  0
    8.8136   40.1868   34.2119 O   0  0  0  0  0  0  0  0  0  0  0  0
   11.2381   40.7921   33.3693 O   0  0  0  0  0  0  0  0  0  0  0  0
   10.9170   40.6910   31.9964 C   0  0  0  0  0  0  0  0  0  0  0  0
   11.5165   39.3830   31.4412 C   0  0  0  0  0  0  0  0  0  0  0  0
   12.7483   39.0898   32.0761 O   0  0  0  0  0  0  0  0  0  0  0  0
   10.6024   38.1901   31.6643 C   0  0  0  0  0  0  0  0  0  0  0  0
   12.9393   37.6839   32.0279 C   0  0  0  0  0  0  0  0  0  0  0  0
    9.6392   38.0766   30.6439 O   0  0  0  0  0  0  0  0  0  0  0  0
   11.5796   37.0208   31.6941 C   0  0  0  0  0  0  0  0  0  0  0  0
   13.4899   37.2180   33.3238 N   0  0  0  0  0  0  0  0  0  0  0  0
   11.6118   36.3185   30.4691 O   0  0  0  0  0  0  0  0  0  0  0  0
   14.4757   36.3273   33.5730 C   0  0  0  0  0  0  0  0  0  0  0  0
   13.1174   37.6318   34.5689 C   0  0  0  0  0  0  0  0  0  0  0  0
   15.2062   35.6143   32.6741 N   0  0  0  0  0  0  0  0  0  0  0  0
   14.6728   36.2275   34.9184 C   0  0  0  0  0  0  0  0  0  0  0  0
   13.8220   37.0458   35.5784 N   0  0  0  0  0  0  0  0  0  0  0  0
   16.1635   34.7598   33.1548 C   0  0  0  0  0  0  0  0  0  0  0  0
   15.6513   35.3494   35.4132 C   0  0  0  0  0  0  0  0  0  0  0  0
   16.3790   34.6313   34.5042 N   0  0  0  0  0  0  0  0  0  0  0  0
   15.9001   35.1935   36.8090 N   0  0  0  0  0  0  0  0  0  0  0  0
    9.8485   45.0035   32.1362 H   0  0  0  0  0  0  0  0  0  0  0  0
   11.2563   46.1189   34.5102 H   0  0  0  0  0  0  0  0  0  0  0  0
   11.9326   45.6991   33.0081 H   0  0  0  0  0  0  0  0  0  0  0  0
    8.6700   45.5833   34.9391 H   0  0  0  0  0  0  0  0  0  0  0  0
    8.6062   46.7754   33.6031 H   0  0  0  0  0  0  0  0  0  0  0  0
    4.7306   43.5411   34.4766 H   0  0  0  0  0  0  0  0  0  0  0  0
    4.9471   44.1847   32.8307 H   0  0  0  0  0  0  0  0  0  0  0  0
    6.4536   42.8451   31.1892 H   0  0  0  0  0  0  0  0  0  0  0  0
    5.1705   41.2285   34.9805 H   0  0  0  0  0  0  0  0  0  0  0  0
    6.9659   40.5657   30.4026 H   0  0  0  0  0  0  0  0  0  0  0  0
    5.6582   38.9530   34.1609 H   0  0  0  0  0  0  0  0  0  0  0  0
    6.5532   38.6142   31.8755 H   0  0  0  0  0  0  0  0  0  0  0  0
   11.3964   41.5461   31.4738 H   0  0  0  0  0  0  0  0  0  0  0  0
    9.8285   40.7404   31.7578 H   0  0  0  0  0  0  0  0  0  0  0  0
   11.6985   39.5105   30.3491 H   0  0  0  0  0  0  0  0  0  0  0  0
   10.1073   38.2595   32.6622 H   0  0  0  0  0  0  0  0  0  0  0  0
   13.6791   37.4637   31.2266 H   0  0  0  0  0  0  0  0  0  0  0  0
    8.9203   38.7255   30.8564 H   0  0  0  0  0  0  0  0  0  0  0  0
   11.2818   36.3074   32.4939 H   0  0  0  0  0  0  0  0  0  0  0  0
   11.8863   36.9575   29.7599 H   0  0  0  0  0  0  0  0  0  0  0  0
   12.3357   38.3600   34.7444 H   0  0  0  0  0  0  0  0  0  0  0  0
   16.7570   34.1795   32.4619 H   0  0  0  0  0  0  0  0  0  0  0  0
   15.3528   35.7356   37.5139 H   0  0  0  0  0  0  0  0  0  0  0  0
   16.6361   34.5318   37.1414 H   0  0  0  0  0  0  0  0  0  0  0  0
  1  2  2  0
  1  3  1  0
  3  4  1  0
  4  5  1  0
  6  1  1  0
  7  6  1  0
  6  8  1  0
  8  9  1  0
  9 10  1  0
  9 11  2  0
 10 12  1  0
 12 13  1  0
 13 14  2  0
 15 13  1  0
 14 16  1  0
 17 15  2  0
 16 18  2  0
 18 17  1  0
  4 19  2  0
  4 20  1  0
 21 20  1  0
 21 22  1  0
 22 23  1  0
 22 24  1  0
 23 25  1  0
 24 26  1  0
 24 27  1  0
 27 25  1  0
 25 28  1  0
 27 29  1  0
 30 28  1  0
 31 28  1  0
 32 30  2  0
 30 33  1  0
 34 31  2  0
 35 32  1  0
 33 36  2  0
 33 34  1  0
 37 35  2  0
 37 36  1  0
 36 38  1  0
  6 39  1  6
  7 40  1  0
  7 41  1  0
  8 42  1  0
  8 43  1  0
 12 44  1  0
 12 45  1  0
 14 46  1  0
 15 47  1  0
 16 48  1  0
 17 49  1  0
 18 50  1  0
 21 51  1  0
 21 52  1  0
 22 53  1  0
 24 54  1  0
 25 55  1  0
 26 56  1  0
 27 57  1  0
 29 58  1  0
 31 59  1  0
 35 60  1  0
 38 61  1  0
 38 62  1  0
M  CHG  1   5  -1
M  END
>  <EmbedRMS>  (14) 
0.08812115177345842

$$$$

     RDKit          3D

 62 65  0  0  0  0  0  0  0  0999 V2000
   10.2859   43.7729   33.8072 C   0  0  0  0  0  0  0  0  0  0  0  0
   11.4092   43.5892   34.3616 O   0  0  0  0  0  0  0  0  0  0  0  0
    9.3680   42.7312   33.7008 O   0  0  0  0  0  0  0  0  0  0  0  0
    9.8859   41.2337   34.2835 P   0  0  0  0  0  5  0  0  0  0  0  0
   10.3647   41.4665   35.8743 O   0  0  0  0  0  1  0  0  0  0  0  0
    9.9528   45.1144   33.2532 C   0  0  2  0  0  0  0  0  0  0  0  0
   11.0716   46.0333   33.4731 N   0  0  0  0  0  0  0  0  0  0  0  0
    8.6593   45.6682   33.8862 C   0  0  0  0  0  0  0  0  0  0  0  0
    8.8305   45.9888   35.3416 C   0  0  0  0  0  0  0  0  0  0  0  0
    8.8618   44.9499   36.2787 O   0  0  0  0  0  0  0  0  0  0  0  0
    8.9762   47.1881   35.7040 O   0  0  0  0  0  0  0  0  0  0  0  0
    9.1581   45.1510   37.6588 C   0  0  0  0  0  0  0  0  0  0  0  0
   10.6114   45.4995   37.8352 C   0  0  0  0  0  0  0  0  0  0  0  0
   11.5973   44.5229   37.6217 C   0  0  0  0  0  0  0  0  0  0  0  0
   10.9993   46.8084   38.1676 C   0  0  0  0  0  0  0  0  0  0  0  0
   12.9512   44.8492   37.7448 C   0  0  0  0  0  0  0  0  0  0  0  0
   12.3545   47.1307   38.2911 C   0  0  0  0  0  0  0  0  0  0  0  0
   13.3297   46.1521   38.0798 C   0  0  0  0  0  0  0  0  0  0  0  0
    8.8081   40.1912   34.2064 O   0  0  0  0  0  0  0  0  0  0  0  0
   11.2388   40.7903   33.3685 O   0  0  0  0  0  0  0  0  0  0  0  0
   10.9198   40.6896   31.9948 C   0  0  0  0  0  0  0  0  0  0  0  0
   11.5172   39.3801   31.4397 C   0  0  0  0  0  0  0  0  0  0  0  0
   12.7480   39.0861   32.0733 O   0  0  0  0  0  0  0  0  0  0  0  0
   10.6032   38.1892   31.6667 C   0  0  0  0  0  0  0  0  0  0  0  0
   12.9335   37.6796   32.0280 C   0  0  0  0  0  0  0  0  0  0  0  0
    9.6397   38.0778   30.6457 O   0  0  0  0  0  0  0  0  0  0  0  0
   11.5739   37.0154   31.7058 C   0  0  0  0  0  0  0  0  0  0  0  0
   13.4903   37.2178   33.3231 N   0  0  0  0  0  0  0  0  0  0  0  0
   11.6210   36.3376   30.4695 O   0  0  0  0  0  0  0  0  0  0  0  0
   14.4761   36.3273   33.5725 C   0  0  0  0  0  0  0  0  0  0  0  0
   13.1179   37.6317   34.5684 C   0  0  0  0  0  0  0  0  0  0  0  0
   15.2063   35.6139   32.6737 N   0  0  0  0  0  0  0  0  0  0  0  0
   14.6733   36.2278   34.9180 C   0  0  0  0  0  0  0  0  0  0  0  0
   13.8226   37.0459   35.5779 N   0  0  0  0  0  0  0  0  0  0  0  0
   16.1636   34.7594   33.1546 C   0  0  0  0  0  0  0  0  0  0  0  0
   15.6515   35.3494   35.4129 C   0  0  0  0  0  0  0  0  0  0  0  0
   16.3791   34.6311   34.5041 N   0  0  0  0  0  0  0  0  0  0  0  0
   15.9001   35.1936   36.8088 N   0  0  0  0  0  0  0  0  0  0  0  0
    9.7830   44.9996   32.1590 H   0  0  0  0  0  0  0  0  0  0  0  0
   11.8820   45.7119   32.8938 H   0  0  0  0  0  0  0  0  0  0  0  0
   10.8085   46.9710   33.0910 H   0  0  0  0  0  0  0  0  0  0  0  0
    8.3524   46.5871   33.3401 H   0  0  0  0  0  0  0  0  0  0  0  0
    7.8326   44.9344   33.7703 H   0  0  0  0  0  0  0  0  0  0  0  0
    8.9416   44.2110   38.2090 H   0  0  0  0  0  0  0  0  0  0  0  0
    8.4952   45.9390   38.0789 H   0  0  0  0  0  0  0  0  0  0  0  0
   11.3168   43.5119   37.3580 H   0  0  0  0  0  0  0  0  0  0  0  0
   10.2554   47.5791   38.3263 H   0  0  0  0  0  0  0  0  0  0  0  0
   13.7068   44.0924   37.5783 H   0  0  0  0  0  0  0  0  0  0  0  0
   12.6488   48.1402   38.5474 H   0  0  0  0  0  0  0  0  0  0  0  0
   14.3782   46.4037   38.1739 H   0  0  0  0  0  0  0  0  0  0  0  0
    9.8320   40.7400   31.7545 H   0  0  0  0  0  0  0  0  0  0  0  0
   11.4017   41.5437   31.4728 H   0  0  0  0  0  0  0  0  0  0  0  0
   11.6984   39.5042   30.3470 H   0  0  0  0  0  0  0  0  0  0  0  0
   10.1091   38.2633   32.6650 H   0  0  0  0  0  0  0  0  0  0  0  0
   13.6656   37.4540   31.2207 H   0  0  0  0  0  0  0  0  0  0  0  0
    8.8966   38.6902   30.8851 H   0  0  0  0  0  0  0  0  0  0  0  0
   11.2845   36.3060   32.5176 H   0  0  0  0  0  0  0  0  0  0  0  0
   10.8523   35.7095   30.4590 H   0  0  0  0  0  0  0  0  0  0  0  0
   12.3354   38.3589   34.7440 H   0  0  0  0  0  0  0  0  0  0  0  0
   16.7570   34.1788   32.4619 H   0  0  0  0  0  0  0  0  0  0  0  0
   15.3529   35.7359   37.5136 H   0  0  0  0  0  0  0  0  0  0  0  0
   16.6360   34.5317   37.1414 H   0  0  0  0  0  0  0  0  0  0  0  0
  1  2  2  0
  1  3  1  0
  3  4  1  0
  4  5  1  0
  6  1  1  0
  7  6  1  0
  6  8  1  0
  8  9  1  0
  9 10  1  0
  9 11  2  0
 10 12  1  0
 12 13  1  0
 13 14  2  0
 15 13  1  0
 14 16  1  0
 17 15  2  0
 16 18  2  0
 18 17  1  0
  4 19  2  0
  4 20  1  0
 21 20  1  0
 21 22  1  0
 22 23  1  0
 22 24  1  0
 23 25  1  0
 24 26  1  0
 24 27  1  0
 27 25  1  0
 25 28  1  0
 27 29  1  0
 30 28  1  0
 31 28  1  0
 32 30  2  0
 30 33  1  0
 34 31  2  0
 35 32  1  0
 33 36  2  0
 33 34  1  0
 37 35  2  0
 37 36  1  0
 36 38  1  0
  6 39  1  6
  7 40  1  0
  7 41  1  0
  8 42  1  0
  8 43  1  0
 12 44  1  0
 12 45  1  0
 14 46  1  0
 15 47  1  0
 16 48  1  0
 17 49  1  0
 18 50  1  0
 21 51  1  0
 21 52  1  0
 22 53  1  0
 24 54  1  0
 25 55  1  0
 26 56  1  0
 27 57  1  0
 29 58  1  0
 31 59  1  0
 35 60  1  0
 38 61  1  0
 38 62  1  0
M  CHG  1   5  -1
M  END
>  <EmbedRMS>  (15) 
0.08971352401980678

$$$$

     RDKit          3D

 62 65  0  0  0  0  0  0  0  0999 V2000
   10.2861   43.7720   33.8046 C   0  0  0  0  0  0  0  0  0  0  0  0
   11.4086   43.5884   34.3610 O   0  0  0  0  0  0  0  0  0  0  0  0
    9.3676   42.7308   33.6991 O   0  0  0  0  0  0  0  0  0  0  0  0
    9.8854   41.2341   34.2839 P   0  0  0  0  0  5  0  0  0  0  0  0
   10.3657   41.4701   35.8744 O   0  0  0  0  0  1  0  0  0  0  0  0
    9.9529   45.1149   33.2536 C   0  0  2  0  0  0  0  0  0  0  0  0
   11.0713   46.0333   33.4765 N   0  0  0  0  0  0  0  0  0  0  0  0
    8.6605   45.6660   33.8894 C   0  0  0  0  0  0  0  0  0  0  0  0
    8.7947   45.8697   35.3694 C   0  0  0  0  0  0  0  0  0  0  0  0
    9.3441   47.0625   35.8526 O   0  0  0  0  0  0  0  0  0  0  0  0
    8.4482   44.9514   36.1617 O   0  0  0  0  0  0  0  0  0  0  0  0
    9.5093   47.3419   37.2409 C   0  0  0  0  0  0  0  0  0  0  0  0
    8.1756   47.5988   37.8875 C   0  0  0  0  0  0  0  0  0  0  0  0
    7.6396   46.6866   38.8121 C   0  0  0  0  0  0  0  0  0  0  0  0
    7.4415   48.7465   37.5472 C   0  0  0  0  0  0  0  0  0  0  0  0
    6.3901   46.9259   39.3928 C   0  0  0  0  0  0  0  0  0  0  0  0
    6.1925   48.9822   38.1304 C   0  0  0  0  0  0  0  0  0  0  0  0
    5.6675   48.0730   39.0530 C   0  0  0  0  0  0  0  0  0  0  0  0
    8.8077   40.1913   34.2086 O   0  0  0  0  0  0  0  0  0  0  0  0
   11.2373   40.7896   33.3684 O   0  0  0  0  0  0  0  0  0  0  0  0
   10.9162   40.6889   31.9951 C   0  0  0  0  0  0  0  0  0  0  0  0
   11.5252   39.3872   31.4364 C   0  0  0  0  0  0  0  0  0  0  0  0
   12.7487   39.0879   32.0802 O   0  0  0  0  0  0  0  0  0  0  0  0
   10.6101   38.1909   31.6470 C   0  0  0  0  0  0  0  0  0  0  0  0
   12.9348   37.6807   32.0292 C   0  0  0  0  0  0  0  0  0  0  0  0
    9.6126   38.0874   30.6547 O   0  0  0  0  0  0  0  0  0  0  0  0
   11.5767   37.0133   31.7025 C   0  0  0  0  0  0  0  0  0  0  0  0
   13.4901   37.2165   33.3236 N   0  0  0  0  0  0  0  0  0  0  0  0
   11.6321   36.3231   30.4741 O   0  0  0  0  0  0  0  0  0  0  0  0
   14.4763   36.3266   33.5727 C   0  0  0  0  0  0  0  0  0  0  0  0
   13.1179   37.6307   34.5689 C   0  0  0  0  0  0  0  0  0  0  0  0
   15.2065   35.6135   32.6739 N   0  0  0  0  0  0  0  0  0  0  0  0
   14.6736   36.2272   34.9182 C   0  0  0  0  0  0  0  0  0  0  0  0
   13.8228   37.0453   35.5783 N   0  0  0  0  0  0  0  0  0  0  0  0
   16.1640   34.7592   33.1547 C   0  0  0  0  0  0  0  0  0  0  0  0
   15.6519   35.3491   35.4131 C   0  0  0  0  0  0  0  0  0  0  0  0
   16.3795   34.6309   34.5042 N   0  0  0  0  0  0  0  0  0  0  0  0
   15.9004   35.1933   36.8089 N   0  0  0  0  0  0  0  0  0  0  0  0
    9.7830   45.0053   32.1588 H   0  0  0  0  0  0  0  0  0  0  0  0
   10.8099   46.9716   33.0948 H   0  0  0  0  0  0  0  0  0  0  0  0
   11.8825   45.7125   32.8981 H   0  0  0  0  0  0  0  0  0  0  0  0
    7.8146   44.9736   33.6841 H   0  0  0  0  0  0  0  0  0  0  0  0
    8.4024   46.6377   33.4159 H   0  0  0  0  0  0  0  0  0  0  0  0
   10.0498   46.5042   37.7341 H   0  0  0  0  0  0  0  0  0  0  0  0
   10.1414   48.2487   37.3475 H   0  0  0  0  0  0  0  0  0  0  0  0
    8.1856   45.7910   39.0814 H   0  0  0  0  0  0  0  0  0  0  0  0
    7.8363   49.4557   36.8301 H   0  0  0  0  0  0  0  0  0  0  0  0
    5.9812   46.2211   40.1052 H   0  0  0  0  0  0  0  0  0  0  0  0
    5.6309   49.8688   37.8657 H   0  0  0  0  0  0  0  0  0  0  0  0
    4.7003   48.2563   39.5029 H   0  0  0  0  0  0  0  0  0  0  0  0
    9.8262   40.7204   31.7576 H   0  0  0  0  0  0  0  0  0  0  0  0
   11.3850   41.5506   31.4736 H   0  0  0  0  0  0  0  0  0  0  0  0
   11.7274   39.5286   30.3501 H   0  0  0  0  0  0  0  0  0  0  0  0
   10.1123   38.2732   32.6390 H   0  0  0  0  0  0  0  0  0  0  0  0
   13.6685   37.4590   31.2224 H   0  0  0  0  0  0  0  0  0  0  0  0
   10.0514   38.1110   29.7648 H   0  0  0  0  0  0  0  0  0  0  0  0
   11.2801   36.3128   32.5195 H   0  0  0  0  0  0  0  0  0  0  0  0
   10.8625   35.6960   30.4645 H   0  0  0  0  0  0  0  0  0  0  0  0
   12.3356   38.3581   34.7445 H   0  0  0  0  0  0  0  0  0  0  0  0
   16.7574   34.1787   32.4620 H   0  0  0  0  0  0  0  0  0  0  0  0
   16.6364   34.5315   37.1415 H   0  0  0  0  0  0  0  0  0  0  0  0
   15.3531   35.7355   37.5138 H   0  0  0  0  0  0  0  0  0  0  0  0
  1  2  2  0
  1  3  1  0
  3  4  1  0
  4  5  1  0
  6  1  1  0
  7  6  1  0
  6  8  1  0
  8  9  1  0
  9 10  1  0
  9 11  2  0
 10 12  1  0
 12 13  1  0
 13 14  2  0
 15 13  1  0
 14 16  1  0
 17 15  2  0
 16 18  2  0
 18 17  1  0
  4 19  2  0
  4 20  1  0
 21 20  1  0
 21 22  1  0
 22 23  1  0
 22 24  1  0
 23 25  1  0
 24 26  1  0
 24 27  1  0
 27 25  1  0
 25 28  1  0
 27 29  1  0
 30 28  1  0
 31 28  1  0
 32 30  2  0
 30 33  1  0
 34 31  2  0
 35 32  1  0
 33 36  2  0
 33 34  1  0
 37 35  2  0
 37 36  1  0
 36 38  1  0
  6 39  1  6
  7 40  1  0
  7 41  1  0
  8 42  1  0
  8 43  1  0
 12 44  1  0
 12 45  1  0
 14 46  1  0
 15 47  1  0
 16 48  1  0
 17 49  1  0
 18 50  1  0
 21 51  1  0
 21 52  1  0
 22 53  1  0
 24 54  1  0
 25 55  1  0
 26 56  1  0
 27 57  1  0
 29 58  1  0
 31 59  1  0
 35 60  1  0
 38 61  1  0
 38 62  1  0
M  CHG  1   5  -1
M  END
>  <EmbedRMS>  (16) 
0.08816118822468672

$$$$

     RDKit          3D

 62 65  0  0  0  0  0  0  0  0999 V2000
   10.2830   43.7754   33.8079 C   0  0  0  0  0  0  0  0  0  0  0  0
   11.4086   43.5914   34.3580 O   0  0  0  0  0  0  0  0  0  0  0  0
    9.3669   42.7317   33.7013 O   0  0  0  0  0  0  0  0  0  0  0  0
    9.8865   41.2344   34.2838 P   0  0  0  0  0  5  0  0  0  0  0  0
   10.3666   41.4693   35.8745 O   0  0  0  0  0  1  0  0  0  0  0  0
    9.9540   45.1113   33.2426 C   0  0  2  0  0  0  0  0  0  0  0  0
   11.0721   46.0271   33.4849 N   0  0  0  0  0  0  0  0  0  0  0  0
    8.6397   45.6445   33.8509 C   0  0  0  0  0  0  0  0  0  0  0  0
    8.2197   46.9276   33.2039 C   0  0  0  0  0  0  0  0  0  0  0  0
    7.7138   46.9050   31.9015 O   0  0  0  0  0  0  0  0  0  0  0  0
    8.3513   48.0175   33.8253 O   0  0  0  0  0  0  0  0  0  0  0  0
    7.3277   48.0852   31.2067 C   0  0  0  0  0  0  0  0  0  0  0  0
    6.8532   47.7153   29.8323 C   0  0  0  0  0  0  0  0  0  0  0  0
    7.7720   47.5907   28.7772 C   0  0  0  0  0  0  0  0  0  0  0  0
    5.4984   47.4223   29.6047 C   0  0  0  0  0  0  0  0  0  0  0  0
    7.3352   47.2074   27.5051 C   0  0  0  0  0  0  0  0  0  0  0  0
    5.0656   47.0393   28.3311 C   0  0  0  0  0  0  0  0  0  0  0  0
    5.9827   46.9344   27.2816 C   0  0  0  0  0  0  0  0  0  0  0  0
    8.8091   40.1913   34.2077 O   0  0  0  0  0  0  0  0  0  0  0  0
   11.2390   40.7910   33.3682 O   0  0  0  0  0  0  0  0  0  0  0  0
   10.9194   40.6896   31.9946 C   0  0  0  0  0  0  0  0  0  0  0  0
   11.5171   39.3801   31.4397 C   0  0  0  0  0  0  0  0  0  0  0  0
   12.7478   39.0861   32.0734 O   0  0  0  0  0  0  0  0  0  0  0  0
   10.6031   38.1891   31.6666 C   0  0  0  0  0  0  0  0  0  0  0  0
   12.9335   37.6796   32.0280 C   0  0  0  0  0  0  0  0  0  0  0  0
    9.6397   38.0777   30.6456 O   0  0  0  0  0  0  0  0  0  0  0  0
   11.5739   37.0154   31.7057 C   0  0  0  0  0  0  0  0  0  0  0  0
   13.4903   37.2178   33.3231 N   0  0  0  0  0  0  0  0  0  0  0  0
   11.6210   36.3376   30.4695 O   0  0  0  0  0  0  0  0  0  0  0  0
   14.4761   36.3273   33.5725 C   0  0  0  0  0  0  0  0  0  0  0  0
   13.1178   37.6316   34.5684 C   0  0  0  0  0  0  0  0  0  0  0  0
   15.2063   35.6139   32.6737 N   0  0  0  0  0  0  0  0  0  0  0  0
   14.6734   36.2277   34.9179 C   0  0  0  0  0  0  0  0  0  0  0  0
   13.8225   37.0459   35.5779 N   0  0  0  0  0  0  0  0  0  0  0  0
   16.1636   34.7594   33.1546 C   0  0  0  0  0  0  0  0  0  0  0  0
   15.6515   35.3494   35.4129 C   0  0  0  0  0  0  0  0  0  0  0  0
   16.3791   34.6311   34.5041 N   0  0  0  0  0  0  0  0  0  0  0  0
   15.9001   35.1935   36.8088 N   0  0  0  0  0  0  0  0  0  0  0  0
    9.8237   44.9835   32.1447 H   0  0  0  0  0  0  0  0  0  0  0  0
   10.9377   46.8881   32.9067 H   0  0  0  0  0  0  0  0  0  0  0  0
   11.0787   46.3205   34.4897 H   0  0  0  0  0  0  0  0  0  0  0  0
    8.7551   45.7913   34.9477 H   0  0  0  0  0  0  0  0  0  0  0  0
    7.8261   44.9032   33.6955 H   0  0  0  0  0  0  0  0  0  0  0  0
    6.5182   48.6024   31.7671 H   0  0  0  0  0  0  0  0  0  0  0  0
    8.1940   48.7792   31.1360 H   0  0  0  0  0  0  0  0  0  0  0  0
    8.8242   47.7893   28.9399 H   0  0  0  0  0  0  0  0  0  0  0  0
    4.7792   47.4897   30.4116 H   0  0  0  0  0  0  0  0  0  0  0  0
    8.0458   47.1180   26.6936 H   0  0  0  0  0  0  0  0  0  0  0  0
    4.0198   46.8199   28.1588 H   0  0  0  0  0  0  0  0  0  0  0  0
    5.6464   46.6363   26.2970 H   0  0  0  0  0  0  0  0  0  0  0  0
   11.4008   41.5437   31.4721 H   0  0  0  0  0  0  0  0  0  0  0  0
    9.8315   40.7397   31.7549 H   0  0  0  0  0  0  0  0  0  0  0  0
   11.6983   39.5042   30.3470 H   0  0  0  0  0  0  0  0  0  0  0  0
   10.1090   38.2632   32.6649 H   0  0  0  0  0  0  0  0  0  0  0  0
   13.6655   37.4541   31.2207 H   0  0  0  0  0  0  0  0  0  0  0  0
    8.8965   38.6901   30.8851 H   0  0  0  0  0  0  0  0  0  0  0  0
   11.2845   36.3060   32.5175 H   0  0  0  0  0  0  0  0  0  0  0  0
   10.8523   35.7095   30.4590 H   0  0  0  0  0  0  0  0  0  0  0  0
   12.3353   38.3587   34.7439 H   0  0  0  0  0  0  0  0  0  0  0  0
   16.7570   34.1788   32.4619 H   0  0  0  0  0  0  0  0  0  0  0  0
   15.3529   35.7359   37.5136 H   0  0  0  0  0  0  0  0  0  0  0  0
   16.6360   34.5317   37.1413 H   0  0  0  0  0  0  0  0  0  0  0  0
  1  2  2  0
  1  3  1  0
  3  4  1  0
  4  5  1  0
  6  1  1  0
  7  6  1  0
  6  8  1  0
  8  9  1  0
  9 10  1  0
  9 11  2  0
 10 12  1  0
 12 13  1  0
 13 14  2  0
 15 13  1  0
 14 16  1  0
 17 15  2  0
 16 18  2  0
 18 17  1  0
  4 19  2  0
  4 20  1  0
 21 20  1  0
 21 22  1  0
 22 23  1  0
 22 24  1  0
 23 25  1  0
 24 26  1  0
 24 27  1  0
 27 25  1  0
 25 28  1  0
 27 29  1  0
 30 28  1  0
 31 28  1  0
 32 30  2  0
 30 33  1  0
 34 31  2  0
 35 32  1  0
 33 36  2  0
 33 34  1  0
 37 35  2  0
 37 36  1  0
 36 38  1  0
  6 39  1  6
  7 40  1  0
  7 41  1  0
  8 42  1  0
  8 43  1  0
 12 44  1  0
 12 45  1  0
 14 46  1  0
 15 47  1  0
 16 48  1  0
 17 49  1  0
 18 50  1  0
 21 51  1  0
 21 52  1  0
 22 53  1  0
 24 54  1  0
 25 55  1  0
 26 56  1  0
 27 57  1  0
 29 58  1  0
 31 59  1  0
 35 60  1  0
 38 61  1  0
 38 62  1  0
M  CHG  1   5  -1
M  END
>  <EmbedRMS>  (17) 
0.08916479820362613

$$$$

     RDKit          3D

 62 65  0  0  0  0  0  0  0  0999 V2000
   10.2846   43.7740   33.8069 C   0  0  0  0  0  0  0  0  0  0  0  0
   11.4069   43.5902   34.3638 O   0  0  0  0  0  0  0  0  0  0  0  0
    9.3682   42.7308   33.6987 O   0  0  0  0  0  0  0  0  0  0  0  0
    9.8864   41.2338   34.2832 P   0  0  0  0  0  5  0  0  0  0  0  0
   10.3659   41.4694   35.8740 O   0  0  0  0  0  1  0  0  0  0  0  0
    9.9498   45.1156   33.2540 C   0  0  2  0  0  0  0  0  0  0  0  0
   11.0749   46.0287   33.4735 N   0  0  0  0  0  0  0  0  0  0  0  0
    8.6757   45.6515   33.9375 C   0  0  0  0  0  0  0  0  0  0  0  0
    8.2020   46.9163   33.2922 C   0  0  0  0  0  0  0  0  0  0  0  0
    7.7009   46.8734   31.9868 O   0  0  0  0  0  0  0  0  0  0  0  0
    8.2926   48.0106   33.9129 O   0  0  0  0  0  0  0  0  0  0  0  0
    7.4479   48.0423   31.2116 C   0  0  0  0  0  0  0  0  0  0  0  0
    8.7457   48.7064   30.8390 C   0  0  0  0  0  0  0  0  0  0  0  0
    9.6741   48.0258   30.0345 C   0  0  0  0  0  0  0  0  0  0  0  0
    9.0583   49.9898   31.3175 C   0  0  0  0  0  0  0  0  0  0  0  0
   10.8961   48.6228   29.7102 C   0  0  0  0  0  0  0  0  0  0  0  0
   10.2811   50.5840   30.9895 C   0  0  0  0  0  0  0  0  0  0  0  0
   11.1992   49.9012   30.1867 C   0  0  0  0  0  0  0  0  0  0  0  0
    8.8087   40.1911   34.2072 O   0  0  0  0  0  0  0  0  0  0  0  0
   11.2391   40.7900   33.3683 O   0  0  0  0  0  0  0  0  0  0  0  0
   10.9199   40.6895   31.9945 C   0  0  0  0  0  0  0  0  0  0  0  0
   11.5173   39.3800   31.4395 C   0  0  0  0  0  0  0  0  0  0  0  0
   12.7480   39.0860   32.0732 O   0  0  0  0  0  0  0  0  0  0  0  0
   10.6032   38.1891   31.6666 C   0  0  0  0  0  0  0  0  0  0  0  0
   12.9336   37.6795   32.0279 C   0  0  0  0  0  0  0  0  0  0  0  0
    9.6397   38.0777   30.6456 O   0  0  0  0  0  0  0  0  0  0  0  0
   11.5739   37.0154   31.7057 C   0  0  0  0  0  0  0  0  0  0  0  0
   13.4903   37.2177   33.3231 N   0  0  0  0  0  0  0  0  0  0  0  0
   11.6210   36.3376   30.4695 O   0  0  0  0  0  0  0  0  0  0  0  0
   14.4761   36.3273   33.5725 C   0  0  0  0  0  0  0  0  0  0  0  0
   13.1179   37.6316   34.5684 C   0  0  0  0  0  0  0  0  0  0  0  0
   15.2063   35.6139   32.6737 N   0  0  0  0  0  0  0  0  0  0  0  0
   14.6733   36.2277   34.9180 C   0  0  0  0  0  0  0  0  0  0  0  0
   13.8225   37.0459   35.5779 N   0  0  0  0  0  0  0  0  0  0  0  0
   16.1636   34.7594   33.1546 C   0  0  0  0  0  0  0  0  0  0  0  0
   15.6515   35.3494   35.4129 C   0  0  0  0  0  0  0  0  0  0  0  0
   16.3791   34.6311   34.5041 N   0  0  0  0  0  0  0  0  0  0  0  0
   15.9001   35.1935   36.8088 N   0  0  0  0  0  0  0  0  0  0  0  0
    9.7676   45.0033   32.1608 H   0  0  0  0  0  0  0  0  0  0  0  0
   10.8463   46.9550   33.0455 H   0  0  0  0  0  0  0  0  0  0  0  0
   11.8963   45.6773   32.9279 H   0  0  0  0  0  0  0  0  0  0  0  0
    7.8571   44.9038   33.8555 H   0  0  0  0  0  0  0  0  0  0  0  0
    8.8706   45.8255   35.0192 H   0  0  0  0  0  0  0  0  0  0  0  0
    6.7788   48.7311   31.7726 H   0  0  0  0  0  0  0  0  0  0  0  0
    6.9167   47.7455   30.2828 H   0  0  0  0  0  0  0  0  0  0  0  0
    9.4533   47.0315   29.6659 H   0  0  0  0  0  0  0  0  0  0  0  0
    8.3604   50.5277   31.9470 H   0  0  0  0  0  0  0  0  0  0  0  0
   11.6092   48.0934   29.0915 H   0  0  0  0  0  0  0  0  0  0  0  0
   10.5183   51.5727   31.3605 H   0  0  0  0  0  0  0  0  0  0  0  0
   12.1458   50.3619   29.9356 H   0  0  0  0  0  0  0  0  0  0  0  0
    9.8321   40.7399   31.7543 H   0  0  0  0  0  0  0  0  0  0  0  0
   11.4018   41.5436   31.4726 H   0  0  0  0  0  0  0  0  0  0  0  0
   11.6984   39.5041   30.3468 H   0  0  0  0  0  0  0  0  0  0  0  0
   10.1091   38.2633   32.6649 H   0  0  0  0  0  0  0  0  0  0  0  0
   13.6656   37.4538   31.2207 H   0  0  0  0  0  0  0  0  0  0  0  0
    8.8967   38.6902   30.8851 H   0  0  0  0  0  0  0  0  0  0  0  0
   11.2845   36.3060   32.5175 H   0  0  0  0  0  0  0  0  0  0  0  0
   10.8523   35.7094   30.4590 H   0  0  0  0  0  0  0  0  0  0  0  0
   12.3353   38.3588   34.7439 H   0  0  0  0  0  0  0  0  0  0  0  0
   16.7570   34.1788   32.4619 H   0  0  0  0  0  0  0  0  0  0  0  0
   16.6360   34.5317   37.1414 H   0  0  0  0  0  0  0  0  0  0  0  0
   15.3529   35.7359   37.5136 H   0  0  0  0  0  0  0  0  0  0  0  0
  1  2  2  0
  1  3  1  0
  3  4  1  0
  4  5  1  0
  6  1  1  0
  7  6  1  0
  6  8  1  0
  8  9  1  0
  9 10  1  0
  9 11  2  0
 10 12  1  0
 12 13  1  0
 13 14  2  0
 15 13  1  0
 14 16  1  0
 17 15  2  0
 16 18  2  0
 18 17  1  0
  4 19  2  0
  4 20  1  0
 21 20  1  0
 21 22  1  0
 22 23  1  0
 22 24  1  0
 23 25  1  0
 24 26  1  0
 24 27  1  0
 27 25  1  0
 25 28  1  0
 27 29  1  0
 30 28  1  0
 31 28  1  0
 32 30  2  0
 30 33  1  0
 34 31  2  0
 35 32  1  0
 33 36  2  0
 33 34  1  0
 37 35  2  0
 37 36  1  0
 36 38  1  0
  6 39  1  6
  7 40  1  0
  7 41  1  0
  8 42  1  0
  8 43  1  0
 12 44  1  0
 12 45  1  0
 14 46  1  0
 15 47  1  0
 16 48  1  0
 17 49  1  0
 18 50  1  0
 21 51  1  0
 21 52  1  0
 22 53  1  0
 24 54  1  0
 25 55  1  0
 26 56  1  0
 27 57  1  0
 29 58  1  0
 31 59  1  0
 35 60  1  0
 38 61  1  0
 38 62  1  0
M  CHG  1   5  -1
M  END
>  <EmbedRMS>  (18) 
0.08951289044220247

$$$$

     RDKit          3D

 62 65  0  0  0  0  0  0  0  0999 V2000
   10.2828   43.7756   33.8080 C   0  0  0  0  0  0  0  0  0  0  0  0
   11.4085   43.5914   34.3579 O   0  0  0  0  0  0  0  0  0  0  0  0
    9.3664   42.7321   33.7019 O   0  0  0  0  0  0  0  0  0  0  0  0
    9.8857   41.2349   34.2847 P   0  0  0  0  0  5  0  0  0  0  0  0
   10.3666   41.4697   35.8751 O   0  0  0  0  0  1  0  0  0  0  0  0
    9.9540   45.1114   33.2426 C   0  0  2  0  0  0  0  0  0  0  0  0
   11.0722   46.0272   33.4848 N   0  0  0  0  0  0  0  0  0  0  0  0
    8.6398   45.6449   33.8508 C   0  0  0  0  0  0  0  0  0  0  0  0
    8.2188   46.9268   33.2021 C   0  0  0  0  0  0  0  0  0  0  0  0
    7.7074   46.9012   31.9019 O   0  0  0  0  0  0  0  0  0  0  0  0
    8.3550   48.0183   33.8196 O   0  0  0  0  0  0  0  0  0  0  0  0
    7.3207   48.0800   31.2050 C   0  0  0  0  0  0  0  0  0  0  0  0
    6.8389   47.7065   29.8341 C   0  0  0  0  0  0  0  0  0  0  0  0
    7.7532   47.5705   28.7765 C   0  0  0  0  0  0  0  0  0  0  0  0
    5.4813   47.4217   29.6125 C   0  0  0  0  0  0  0  0  0  0  0  0
    7.3094   47.1838   27.5079 C   0  0  0  0  0  0  0  0  0  0  0  0
    5.0416   47.0354   28.3424 C   0  0  0  0  0  0  0  0  0  0  0  0
    5.9544   46.9189   27.2903 C   0  0  0  0  0  0  0  0  0  0  0  0
    8.8084   40.1916   34.2088 O   0  0  0  0  0  0  0  0  0  0  0  0
   11.2372   40.7915   33.3685 O   0  0  0  0  0  0  0  0  0  0  0  0
   10.9152   40.6899   31.9957 C   0  0  0  0  0  0  0  0  0  0  0  0
   11.5269   39.3899   31.4374 C   0  0  0  0  0  0  0  0  0  0  0  0
   12.7506   39.0917   32.0840 O   0  0  0  0  0  0  0  0  0  0  0  0
   10.6121   38.1916   31.6452 C   0  0  0  0  0  0  0  0  0  0  0  0
   12.9429   37.6853   32.0295 C   0  0  0  0  0  0  0  0  0  0  0  0
    9.6069   38.0858   30.6603 O   0  0  0  0  0  0  0  0  0  0  0  0
   11.5845   37.0186   31.6880 C   0  0  0  0  0  0  0  0  0  0  0  0
   13.4899   37.2163   33.3250 N   0  0  0  0  0  0  0  0  0  0  0  0
   11.6201   36.3063   30.4693 O   0  0  0  0  0  0  0  0  0  0  0  0
   14.4759   36.3263   33.5738 C   0  0  0  0  0  0  0  0  0  0  0  0
   13.1175   37.6307   34.5699 C   0  0  0  0  0  0  0  0  0  0  0  0
   15.2065   35.6139   32.6746 N   0  0  0  0  0  0  0  0  0  0  0  0
   14.6731   36.2267   34.9191 C   0  0  0  0  0  0  0  0  0  0  0  0
   13.8224   37.0450   35.5792 N   0  0  0  0  0  0  0  0  0  0  0  0
   16.1640   34.7596   33.1551 C   0  0  0  0  0  0  0  0  0  0  0  0
   15.6517   35.3489   35.4136 C   0  0  0  0  0  0  0  0  0  0  0  0
   16.3795   34.6310   34.5045 N   0  0  0  0  0  0  0  0  0  0  0  0
   15.9006   35.1931   36.8094 N   0  0  0  0  0  0  0  0  0  0  0  0
    9.8236   44.9835   32.1447 H   0  0  0  0  0  0  0  0  0  0  0  0
   10.9377   46.8881   32.9066 H   0  0  0  0  0  0  0  0  0  0  0  0
   11.0790   46.3205   34.4896 H   0  0  0  0  0  0  0  0  0  0  0  0
    8.7556   45.7934   34.9474 H   0  0  0  0  0  0  0  0  0  0  0  0
    7.8263   44.9030   33.6970 H   0  0  0  0  0  0  0  0  0  0  0  0
    6.5153   48.6011   31.7676 H   0  0  0  0  0  0  0  0  0  0  0  0
    8.1884   48.7715   31.1277 H   0  0  0  0  0  0  0  0  0  0  0  0
    8.8073   47.7627   28.9347 H   0  0  0  0  0  0  0  0  0  0  0  0
    4.7653   47.4980   30.4215 H   0  0  0  0  0  0  0  0  0  0  0  0
    8.0167   47.0855   26.6945 H   0  0  0  0  0  0  0  0  0  0  0  0
    3.9937   46.8223   28.1747 H   0  0  0  0  0  0  0  0  0  0  0  0
    5.6127   46.6182   26.3083 H   0  0  0  0  0  0  0  0  0  0  0  0
    9.8250   40.7189   31.7590 H   0  0  0  0  0  0  0  0  0  0  0  0
   11.3816   41.5527   31.4737 H   0  0  0  0  0  0  0  0  0  0  0  0
   11.7318   39.5338   30.3520 H   0  0  0  0  0  0  0  0  0  0  0  0
   10.1214   38.2682   32.6413 H   0  0  0  0  0  0  0  0  0  0  0  0
   13.6882   37.4709   31.2319 H   0  0  0  0  0  0  0  0  0  0  0  0
   10.0256   38.1751   29.7656 H   0  0  0  0  0  0  0  0  0  0  0  0
   11.2795   36.3124   32.4915 H   0  0  0  0  0  0  0  0  0  0  0  0
   11.9872   36.9100   29.7715 H   0  0  0  0  0  0  0  0  0  0  0  0
   12.3365   38.3595   34.7453 H   0  0  0  0  0  0  0  0  0  0  0  0
   16.7576   34.1794   32.4622 H   0  0  0  0  0  0  0  0  0  0  0  0
   16.6368   34.5315   37.1418 H   0  0  0  0  0  0  0  0  0  0  0  0
   15.3532   35.7351   37.5143 H   0  0  0  0  0  0  0  0  0  0  0  0
  1  2  2  0
  1  3  1  0
  3  4  1  0
  4  5  1  0
  6  1  1  0
  7  6  1  0
  6  8  1  0
  8  9  1  0
  9 10  1  0
  9 11  2  0
 10 12  1  0
 12 13  1  0
 13 14  2  0
 15 13  1  0
 14 16  1  0
 17 15  2  0
 16 18  2  0
 18 17  1  0
  4 19  2  0
  4 20  1  0
 21 20  1  0
 21 22  1  0
 22 23  1  0
 22 24  1  0
 23 25  1  0
 24 26  1  0
 24 27  1  0
 27 25  1  0
 25 28  1  0
 27 29  1  0
 30 28  1  0
 31 28  1  0
 32 30  2  0
 30 33  1  0
 34 31  2  0
 35 32  1  0
 33 36  2  0
 33 34  1  0
 37 35  2  0
 37 36  1  0
 36 38  1  0
  6 39  1  6
  7 40  1  0
  7 41  1  0
  8 42  1  0
  8 43  1  0
 12 44  1  0
 12 45  1  0
 14 46  1  0
 15 47  1  0
 16 48  1  0
 17 49  1  0
 18 50  1  0
 21 51  1  0
 21 52  1  0
 22 53  1  0
 24 54  1  0
 25 55  1  0
 26 56  1  0
 27 57  1  0
 29 58  1  0
 31 59  1  0
 35 60  1  0
 38 61  1  0
 38 62  1  0
M  CHG  1   5  -1
M  END
>  <EmbedRMS>  (19) 
0.08670106585016736

$$$$

     RDKit          3D

 62 65  0  0  0  0  0  0  0  0999 V2000
   10.2860   43.7720   33.8047 C   0  0  0  0  0  0  0  0  0  0  0  0
   11.4085   43.5884   34.3610 O   0  0  0  0  0  0  0  0  0  0  0  0
    9.3673   42.7311   33.6994 O   0  0  0  0  0  0  0  0  0  0  0  0
    9.8850   41.2344   34.2845 P   0  0  0  0  0  5  0  0  0  0  0  0
   10.3655   41.4703   35.8749 O   0  0  0  0  0  1  0  0  0  0  0  0
    9.9530   45.1149   33.2535 C   0  0  2  0  0  0  0  0  0  0  0  0
   11.0713   46.0333   33.4765 N   0  0  0  0  0  0  0  0  0  0  0  0
    8.6604   45.6661   33.8891 C   0  0  0  0  0  0  0  0  0  0  0  0
    8.7939   45.8683   35.3694 C   0  0  0  0  0  0  0  0  0  0  0  0
    9.3471   47.0587   35.8541 O   0  0  0  0  0  0  0  0  0  0  0  0
    8.4433   44.9506   36.1607 O   0  0  0  0  0  0  0  0  0  0  0  0
    9.5112   47.3367   37.2428 C   0  0  0  0  0  0  0  0  0  0  0  0
    8.1774   47.5996   37.8871 C   0  0  0  0  0  0  0  0  0  0  0  0
    7.4505   48.7521   37.5477 C   0  0  0  0  0  0  0  0  0  0  0  0
    7.6341   46.6881   38.8081 C   0  0  0  0  0  0  0  0  0  0  0  0
    6.2014   48.9934   38.1284 C   0  0  0  0  0  0  0  0  0  0  0  0
    6.3845   46.9330   39.3863 C   0  0  0  0  0  0  0  0  0  0  0  0
    5.6691   48.0849   39.0475 C   0  0  0  0  0  0  0  0  0  0  0  0
    8.8076   40.1914   34.2088 O   0  0  0  0  0  0  0  0  0  0  0  0
   11.2368   40.7903   33.3690 O   0  0  0  0  0  0  0  0  0  0  0  0
   10.9155   40.6897   31.9960 C   0  0  0  0  0  0  0  0  0  0  0  0
   11.5270   39.3898   31.4374 C   0  0  0  0  0  0  0  0  0  0  0  0
   12.7508   39.0916   32.0838 O   0  0  0  0  0  0  0  0  0  0  0  0
   10.6122   38.1916   31.6452 C   0  0  0  0  0  0  0  0  0  0  0  0
   12.9429   37.6852   32.0295 C   0  0  0  0  0  0  0  0  0  0  0  0
    9.6070   38.0858   30.6603 O   0  0  0  0  0  0  0  0  0  0  0  0
   11.5845   37.0186   31.6879 C   0  0  0  0  0  0  0  0  0  0  0  0
   13.4899   37.2163   33.3250 N   0  0  0  0  0  0  0  0  0  0  0  0
   11.6201   36.3062   30.4693 O   0  0  0  0  0  0  0  0  0  0  0  0
   14.4759   36.3263   33.5739 C   0  0  0  0  0  0  0  0  0  0  0  0
   13.1176   37.6308   34.5699 C   0  0  0  0  0  0  0  0  0  0  0  0
   15.2065   35.6139   32.6746 N   0  0  0  0  0  0  0  0  0  0  0  0
   14.6731   36.2267   34.9191 C   0  0  0  0  0  0  0  0  0  0  0  0
   13.8224   37.0450   35.5792 N   0  0  0  0  0  0  0  0  0  0  0  0
   16.1640   34.7596   33.1551 C   0  0  0  0  0  0  0  0  0  0  0  0
   15.6517   35.3489   35.4136 C   0  0  0  0  0  0  0  0  0  0  0  0
   16.3795   34.6310   34.5046 N   0  0  0  0  0  0  0  0  0  0  0  0
   15.9006   35.1931   36.8094 N   0  0  0  0  0  0  0  0  0  0  0  0
    9.7831   45.0053   32.1587 H   0  0  0  0  0  0  0  0  0  0  0  0
   11.8826   45.7124   32.8983 H   0  0  0  0  0  0  0  0  0  0  0  0
   10.8101   46.9716   33.0947 H   0  0  0  0  0  0  0  0  0  0  0  0
    8.4031   46.6385   33.4165 H   0  0  0  0  0  0  0  0  0  0  0  0
    7.8143   44.9744   33.6826 H   0  0  0  0  0  0  0  0  0  0  0  0
   10.0468   46.4963   37.7367 H   0  0  0  0  0  0  0  0  0  0  0  0
   10.1473   48.2404   37.3509 H   0  0  0  0  0  0  0  0  0  0  0  0
    7.8509   49.4608   36.8332 H   0  0  0  0  0  0  0  0  0  0  0  0
    8.1745   45.7889   39.0765 H   0  0  0  0  0  0  0  0  0  0  0  0
    5.6454   49.8837   37.8645 H   0  0  0  0  0  0  0  0  0  0  0  0
    5.9699   46.2286   40.0959 H   0  0  0  0  0  0  0  0  0  0  0  0
    4.7018   48.2724   39.4954 H   0  0  0  0  0  0  0  0  0  0  0  0
    9.8254   40.7190   31.7587 H   0  0  0  0  0  0  0  0  0  0  0  0
   11.3826   41.5526   31.4747 H   0  0  0  0  0  0  0  0  0  0  0  0
   11.7318   39.5338   30.3520 H   0  0  0  0  0  0  0  0  0  0  0  0
   10.1214   38.2682   32.6413 H   0  0  0  0  0  0  0  0  0  0  0  0
   13.6882   37.4707   31.2319 H   0  0  0  0  0  0  0  0  0  0  0  0
   10.0256   38.1751   29.7656 H   0  0  0  0  0  0  0  0  0  0  0  0
   11.2796   36.3123   32.4915 H   0  0  0  0  0  0  0  0  0  0  0  0
   11.9872   36.9099   29.7715 H   0  0  0  0  0  0  0  0  0  0  0  0
   12.3365   38.3596   34.7453 H   0  0  0  0  0  0  0  0  0  0  0  0
   16.7576   34.1794   32.4622 H   0  0  0  0  0  0  0  0  0  0  0  0
   16.6368   34.5316   37.1418 H   0  0  0  0  0  0  0  0  0  0  0  0
   15.3532   35.7351   37.5143 H   0  0  0  0  0  0  0  0  0  0  0  0
  1  2  2  0
  1  3  1  0
  3  4  1  0
  4  5  1  0
  6  1  1  0
  7  6  1  0
  6  8  1  0
  8  9  1  0
  9 10  1  0
  9 11  2  0
 10 12  1  0
 12 13  1  0
 13 14  2  0
 15 13  1  0
 14 16  1  0
 17 15  2  0
 16 18  2  0
 18 17  1  0
  4 19  2  0
  4 20  1  0
 21 20  1  0
 21 22  1  0
 22 23  1  0
 22 24  1  0
 23 25  1  0
 24 26  1  0
 24 27  1  0
 27 25  1  0
 25 28  1  0
 27 29  1  0
 30 28  1  0
 31 28  1  0
 32 30  2  0
 30 33  1  0
 34 31  2  0
 35 32  1  0
 33 36  2  0
 33 34  1  0
 37 35  2  0
 37 36  1  0
 36 38  1  0
  6 39  1  6
  7 40  1  0
  7 41  1  0
  8 42  1  0
  8 43  1  0
 12 44  1  0
 12 45  1  0
 14 46  1  0
 15 47  1  0
 16 48  1  0
 17 49  1  0
 18 50  1  0
 21 51  1  0
 21 52  1  0
 22 53  1  0
 24 54  1  0
 25 55  1  0
 26 56  1  0
 27 57  1  0
 29 58  1  0
 31 59  1  0
 35 60  1  0
 38 61  1  0
 38 62  1  0
M  CHG  1   5  -1
M  END
>  <EmbedRMS>  (20) 
0.08701035404044893

$$$$

     RDKit          3D

 62 65  0  0  0  0  0  0  0  0999 V2000
   10.2863   43.7709   33.8100 C   0  0  0  0  0  0  0  0  0  0  0  0
   11.4101   43.5817   34.3617 O   0  0  0  0  0  0  0  0  0  0  0  0
    9.3670   42.7307   33.7018 O   0  0  0  0  0  0  0  0  0  0  0  0
    9.8849   41.2327   34.2837 P   0  0  0  0  0  5  0  0  0  0  0  0
   10.3652   41.4674   35.8745 O   0  0  0  0  0  1  0  0  0  0  0  0
    9.9612   45.1119   33.2468 C   0  0  2  0  0  0  0  0  0  0  0  0
   11.0651   46.0483   33.4749 N   0  0  0  0  0  0  0  0  0  0  0  0
    8.6639   45.6565   33.8681 C   0  0  0  0  0  0  0  0  0  0  0  0
    8.2885   46.9669   33.2505 C   0  0  0  0  0  0  0  0  0  0  0  0
    7.7463   46.9859   31.9609 O   0  0  0  0  0  0  0  0  0  0  0  0
    8.5051   48.0408   33.8757 O   0  0  0  0  0  0  0  0  0  0  0  0
    7.5408   48.1857   31.2192 C   0  0  0  0  0  0  0  0  0  0  0  0
    8.8628   48.7721   30.8041 C   0  0  0  0  0  0  0  0  0  0  0  0
    9.7030   48.0578   29.9344 C   0  0  0  0  0  0  0  0  0  0  0  0
    9.2841   50.0161   31.3027 C   0  0  0  0  0  0  0  0  0  0  0  0
   10.9450   48.5835   29.5653 C   0  0  0  0  0  0  0  0  0  0  0  0
   10.5267   50.5387   30.9302 C   0  0  0  0  0  0  0  0  0  0  0  0
   11.3563   49.8233   30.0622 C   0  0  0  0  0  0  0  0  0  0  0  0
    8.8074   40.1901   34.2072 O   0  0  0  0  0  0  0  0  0  0  0  0
   11.2378   40.7899   33.3683 O   0  0  0  0  0  0  0  0  0  0  0  0
   10.9186   40.6887   31.9946 C   0  0  0  0  0  0  0  0  0  0  0  0
   11.5180   39.3800   31.4397 C   0  0  0  0  0  0  0  0  0  0  0  0
   12.7483   39.0876   32.0750 O   0  0  0  0  0  0  0  0  0  0  0  0
   10.6053   38.1874   31.6656 C   0  0  0  0  0  0  0  0  0  0  0  0
   12.9361   37.6816   32.0288 C   0  0  0  0  0  0  0  0  0  0  0  0
    9.6423   38.0737   30.6445 O   0  0  0  0  0  0  0  0  0  0  0  0
   11.5765   37.0158   31.7046 C   0  0  0  0  0  0  0  0  0  0  0  0
   13.4908   37.2183   33.3237 N   0  0  0  0  0  0  0  0  0  0  0  0
   11.6103   36.3399   30.4680 O   0  0  0  0  0  0  0  0  0  0  0  0
   14.4762   36.3273   33.5728 C   0  0  0  0  0  0  0  0  0  0  0  0
   13.1181   37.6318   34.5689 C   0  0  0  0  0  0  0  0  0  0  0  0
   15.2063   35.6141   32.6739 N   0  0  0  0  0  0  0  0  0  0  0  0
   14.6733   36.2275   34.9182 C   0  0  0  0  0  0  0  0  0  0  0  0
   13.8226   37.0457   35.5783 N   0  0  0  0  0  0  0  0  0  0  0  0
   16.1635   34.7595   33.1546 C   0  0  0  0  0  0  0  0  0  0  0  0
   15.6515   35.3492   35.4130 C   0  0  0  0  0  0  0  0  0  0  0  0
   16.3791   34.6310   34.5041 N   0  0  0  0  0  0  0  0  0  0  0  0
   15.9003   35.1933   36.8089 N   0  0  0  0  0  0  0  0  0  0  0  0
    9.8127   44.9942   32.1502 H   0  0  0  0  0  0  0  0  0  0  0  0
   11.2751   46.1181   34.4982 H   0  0  0  0  0  0  0  0  0  0  0  0
   11.9216   45.7041   32.9816 H   0  0  0  0  0  0  0  0  0  0  0  0
    8.7869   45.7774   34.9674 H   0  0  0  0  0  0  0  0  0  0  0  0
    7.8319   44.9400   33.6949 H   0  0  0  0  0  0  0  0  0  0  0  0
    6.9531   47.9446   30.3085 H   0  0  0  0  0  0  0  0  0  0  0  0
    6.9420   48.9046   31.8206 H   0  0  0  0  0  0  0  0  0  0  0  0
    9.3975   47.0930   29.5483 H   0  0  0  0  0  0  0  0  0  0  0  0
    8.6553   50.5787   31.9815 H   0  0  0  0  0  0  0  0  0  0  0  0
   11.5894   48.0287   28.8957 H   0  0  0  0  0  0  0  0  0  0  0  0
   10.8477   51.4974   31.3167 H   0  0  0  0  0  0  0  0  0  0  0  0
   12.3183   50.2286   29.7763 H   0  0  0  0  0  0  0  0  0  0  0  0
   11.3991   41.5436   31.4725 H   0  0  0  0  0  0  0  0  0  0  0  0
    9.8306   40.7374   31.7548 H   0  0  0  0  0  0  0  0  0  0  0  0
   11.7002   39.5045   30.3472 H   0  0  0  0  0  0  0  0  0  0  0  0
   10.1103   38.2618   32.6636 H   0  0  0  0  0  0  0  0  0  0  0  0
   13.6696   37.4587   31.2222 H   0  0  0  0  0  0  0  0  0  0  0  0
    8.9000   38.6881   30.8813 H   0  0  0  0  0  0  0  0  0  0  0  0
   11.2690   36.3069   32.5091 H   0  0  0  0  0  0  0  0  0  0  0  0
   12.1427   35.5151   30.6153 H   0  0  0  0  0  0  0  0  0  0  0  0
   12.3359   38.3593   34.7445 H   0  0  0  0  0  0  0  0  0  0  0  0
   16.7569   34.1789   32.4618 H   0  0  0  0  0  0  0  0  0  0  0  0
   16.6362   34.5315   37.1413 H   0  0  0  0  0  0  0  0  0  0  0  0
   15.3530   35.7356   37.5138 H   0  0  0  0  0  0  0  0  0  0  0  0
  1  2  2  0
  1  3  1  0
  3  4  1  0
  4  5  1  0
  6  1  1  0
  7  6  1  0
  6  8  1  0
  8  9  1  0
  9 10  1  0
  9 11  2  0
 10 12  1  0
 12 13  1  0
 13 14  2  0
 15 13  1  0
 14 16  1  0
 17 15  2  0
 16 18  2  0
 18 17  1  0
  4 19  2  0
  4 20  1  0
 21 20  1  0
 21 22  1  0
 22 23  1  0
 22 24  1  0
 23 25  1  0
 24 26  1  0
 24 27  1  0
 27 25  1  0
 25 28  1  0
 27 29  1  0
 30 28  1  0
 31 28  1  0
 32 30  2  0
 30 33  1  0
 34 31  2  0
 35 32  1  0
 33 36  2  0
 33 34  1  0
 37 35  2  0
 37 36  1  0
 36 38  1  0
  6 39  1  6
  7 40  1  0
  7 41  1  0
  8 42  1  0
  8 43  1  0
 12 44  1  0
 12 45  1  0
 14 46  1  0
 15 47  1  0
 16 48  1  0
 17 49  1  0
 18 50  1  0
 21 51  1  0
 21 52  1  0
 22 53  1  0
 24 54  1  0
 25 55  1  0
 26 56  1  0
 27 57  1  0
 29 58  1  0
 31 59  1  0
 35 60  1  0
 38 61  1  0
 38 62  1  0
M  CHG  1   5  -1
M  END
>  <EmbedRMS>  (21) 
0.08982449228846176

$$$$

     RDKit          3D

 62 65  0  0  0  0  0  0  0  0999 V2000
   10.2856   43.7717   33.8041 C   0  0  0  0  0  0  0  0  0  0  0  0
   11.4105   43.5871   34.3556 O   0  0  0  0  0  0  0  0  0  0  0  0
    9.3667   42.7310   33.6998 O   0  0  0  0  0  0  0  0  0  0  0  0
    9.8855   41.2343   34.2835 P   0  0  0  0  0  5  0  0  0  0  0  0
   10.3667   41.4698   35.8736 O   0  0  0  0  0  1  0  0  0  0  0  0
    9.9550   45.1132   33.2493 C   0  0  2  0  0  0  0  0  0  0  0  0
   11.0694   46.0342   33.4831 N   0  0  0  0  0  0  0  0  0  0  0  0
    8.6228   45.6650   33.8118 C   0  0  0  0  0  0  0  0  0  0  0  0
    8.5588   45.6262   35.3108 C   0  0  0  0  0  0  0  0  0  0  0  0
    9.1735   46.6366   36.0579 O   0  0  0  0  0  0  0  0  0  0  0  0
    7.9883   44.6589   35.8854 O   0  0  0  0  0  0  0  0  0  0  0  0
    9.3851   46.5433   37.4647 C   0  0  0  0  0  0  0  0  0  0  0  0
   10.4216   45.4933   37.7623 C   0  0  0  0  0  0  0  0  0  0  0  0
   10.0529   44.2653   38.3368 C   0  0  0  0  0  0  0  0  0  0  0  0
   11.7626   45.7125   37.4079 C   0  0  0  0  0  0  0  0  0  0  0  0
   11.0157   43.2762   38.5610 C   0  0  0  0  0  0  0  0  0  0  0  0
   12.7215   44.7195   37.6302 C   0  0  0  0  0  0  0  0  0  0  0  0
   12.3484   43.5022   38.2064 C   0  0  0  0  0  0  0  0  0  0  0  0
    8.8079   40.1915   34.2087 O   0  0  0  0  0  0  0  0  0  0  0  0
   11.2370   40.7905   33.3664 O   0  0  0  0  0  0  0  0  0  0  0  0
   10.9142   40.6851   31.9935 C   0  0  0  0  0  0  0  0  0  0  0  0
   11.5166   39.3774   31.4396 C   0  0  0  0  0  0  0  0  0  0  0  0
   12.7472   39.0855   32.0741 O   0  0  0  0  0  0  0  0  0  0  0  0
   10.6047   38.1868   31.6671 C   0  0  0  0  0  0  0  0  0  0  0  0
   12.9345   37.6792   32.0283 C   0  0  0  0  0  0  0  0  0  0  0  0
    9.6379   38.0918   30.6489 O   0  0  0  0  0  0  0  0  0  0  0  0
   11.5761   37.0130   31.7057 C   0  0  0  0  0  0  0  0  0  0  0  0
   13.4909   37.2178   33.3234 N   0  0  0  0  0  0  0  0  0  0  0  0
   11.6234   36.3372   30.4684 O   0  0  0  0  0  0  0  0  0  0  0  0
   14.4765   36.3272   33.5728 C   0  0  0  0  0  0  0  0  0  0  0  0
   13.1182   37.6317   34.5686 C   0  0  0  0  0  0  0  0  0  0  0  0
   15.2066   35.6138   32.6739 N   0  0  0  0  0  0  0  0  0  0  0  0
   14.6735   36.2276   34.9182 C   0  0  0  0  0  0  0  0  0  0  0  0
   13.8227   37.0458   35.5782 N   0  0  0  0  0  0  0  0  0  0  0  0
   16.1638   34.7593   33.1548 C   0  0  0  0  0  0  0  0  0  0  0  0
   15.6516   35.3493   35.4131 C   0  0  0  0  0  0  0  0  0  0  0  0
   16.3792   34.6309   34.5043 N   0  0  0  0  0  0  0  0  0  0  0  0
   15.9002   35.1934   36.8090 N   0  0  0  0  0  0  0  0  0  0  0  0
    9.8353   44.9930   32.1502 H   0  0  0  0  0  0  0  0  0  0  0  0
   11.1640   46.2336   34.5044 H   0  0  0  0  0  0  0  0  0  0  0  0
   10.8617   46.9414   33.0058 H   0  0  0  0  0  0  0  0  0  0  0  0
    8.4760   46.7117   33.4692 H   0  0  0  0  0  0  0  0  0  0  0  0
    7.7799   45.0692   33.3975 H   0  0  0  0  0  0  0  0  0  0  0  0
    9.7461   47.5255   37.8365 H   0  0  0  0  0  0  0  0  0  0  0  0
    8.4238   46.3271   37.9805 H   0  0  0  0  0  0  0  0  0  0  0  0
    9.0218   44.0703   38.6040 H   0  0  0  0  0  0  0  0  0  0  0  0
   12.0620   46.6482   36.9521 H   0  0  0  0  0  0  0  0  0  0  0  0
   10.7270   42.3311   39.0024 H   0  0  0  0  0  0  0  0  0  0  0  0
   13.7531   44.8922   37.3521 H   0  0  0  0  0  0  0  0  0  0  0  0
   13.0911   42.7334   38.3756 H   0  0  0  0  0  0  0  0  0  0  0  0
    9.8242   40.7212   31.7570 H   0  0  0  0  0  0  0  0  0  0  0  0
   11.3870   41.5417   31.4673 H   0  0  0  0  0  0  0  0  0  0  0  0
   11.6986   39.5015   30.3470 H   0  0  0  0  0  0  0  0  0  0  0  0
   10.1095   38.2771   32.6630 H   0  0  0  0  0  0  0  0  0  0  0  0
   13.6672   37.4546   31.2214 H   0  0  0  0  0  0  0  0  0  0  0  0
    8.9779   37.4158   30.9534 H   0  0  0  0  0  0  0  0  0  0  0  0
   11.2861   36.3042   32.5177 H   0  0  0  0  0  0  0  0  0  0  0  0
   10.8690   35.6919   30.4658 H   0  0  0  0  0  0  0  0  0  0  0  0
   12.3357   38.3589   34.7440 H   0  0  0  0  0  0  0  0  0  0  0  0
   16.7571   34.1786   32.4621 H   0  0  0  0  0  0  0  0  0  0  0  0
   15.3530   35.7358   37.5138 H   0  0  0  0  0  0  0  0  0  0  0  0
   16.6360   34.5316   37.1416 H   0  0  0  0  0  0  0  0  0  0  0  0
  1  2  2  0
  1  3  1  0
  3  4  1  0
  4  5  1  0
  6  1  1  0
  7  6  1  0
  6  8  1  0
  8  9  1  0
  9 10  1  0
  9 11  2  0
 10 12  1  0
 12 13  1  0
 13 14  2  0
 15 13  1  0
 14 16  1  0
 17 15  2  0
 16 18  2  0
 18 17  1  0
  4 19  2  0
  4 20  1  0
 21 20  1  0
 21 22  1  0
 22 23  1  0
 22 24  1  0
 23 25  1  0
 24 26  1  0
 24 27  1  0
 27 25  1  0
 25 28  1  0
 27 29  1  0
 30 28  1  0
 31 28  1  0
 32 30  2  0
 30 33  1  0
 34 31  2  0
 35 32  1  0
 33 36  2  0
 33 34  1  0
 37 35  2  0
 37 36  1  0
 36 38  1  0
  6 39  1  6
  7 40  1  0
  7 41  1  0
  8 42  1  0
  8 43  1  0
 12 44  1  0
 12 45  1  0
 14 46  1  0
 15 47  1  0
 16 48  1  0
 17 49  1  0
 18 50  1  0
 21 51  1  0
 21 52  1  0
 22 53  1  0
 24 54  1  0
 25 55  1  0
 26 56  1  0
 27 57  1  0
 29 58  1  0
 31 59  1  0
 35 60  1  0
 38 61  1  0
 38 62  1  0
M  CHG  1   5  -1
M  END
>  <EmbedRMS>  (22) 
0.08882859871153916

$$$$

     RDKit          3D

 62 65  0  0  0  0  0  0  0  0999 V2000
   10.2859   43.7721   33.8047 C   0  0  0  0  0  0  0  0  0  0  0  0
   11.4085   43.5885   34.3610 O   0  0  0  0  0  0  0  0  0  0  0  0
    9.3673   42.7311   33.6995 O   0  0  0  0  0  0  0  0  0  0  0  0
    9.8853   41.2343   34.2839 P   0  0  0  0  0  5  0  0  0  0  0  0
   10.3661   41.4700   35.8743 O   0  0  0  0  0  1  0  0  0  0  0  0
    9.9529   45.1149   33.2535 C   0  0  2  0  0  0  0  0  0  0  0  0
   11.0713   46.0333   33.4765 N   0  0  0  0  0  0  0  0  0  0  0  0
    8.6604   45.6662   33.8890 C   0  0  0  0  0  0  0  0  0  0  0  0
    8.7944   45.8705   35.3689 C   0  0  0  0  0  0  0  0  0  0  0  0
    9.3442   47.0634   35.8516 O   0  0  0  0  0  0  0  0  0  0  0  0
    8.4473   44.9528   36.1616 O   0  0  0  0  0  0  0  0  0  0  0  0
    9.5082   47.3438   37.2399 C   0  0  0  0  0  0  0  0  0  0  0  0
    8.1739   47.6028   37.8847 C   0  0  0  0  0  0  0  0  0  0  0  0
    7.4417   48.7513   37.5429 C   0  0  0  0  0  0  0  0  0  0  0  0
    7.6355   46.6917   38.8090 C   0  0  0  0  0  0  0  0  0  0  0  0
    6.1923   48.9889   38.1243 C   0  0  0  0  0  0  0  0  0  0  0  0
    6.3856   46.9329   39.3880 C   0  0  0  0  0  0  0  0  0  0  0  0
    5.6649   48.0808   39.0466 C   0  0  0  0  0  0  0  0  0  0  0  0
    8.8077   40.1915   34.2086 O   0  0  0  0  0  0  0  0  0  0  0  0
   11.2368   40.7908   33.3672 O   0  0  0  0  0  0  0  0  0  0  0  0
   10.9136   40.6860   31.9946 C   0  0  0  0  0  0  0  0  0  0  0  0
   11.5170   39.3797   31.4409 C   0  0  0  0  0  0  0  0  0  0  0  0
   12.7488   39.0886   32.0762 O   0  0  0  0  0  0  0  0  0  0  0  0
   10.6051   38.1876   31.6659 C   0  0  0  0  0  0  0  0  0  0  0  0
   12.9412   37.6828   32.0278 C   0  0  0  0  0  0  0  0  0  0  0  0
    9.6359   38.0930   30.6503 O   0  0  0  0  0  0  0  0  0  0  0  0
   11.5827   37.0179   31.6936 C   0  0  0  0  0  0  0  0  0  0  0  0
   13.4909   37.2176   33.3239 N   0  0  0  0  0  0  0  0  0  0  0  0
   11.6140   36.3180   30.4675 O   0  0  0  0  0  0  0  0  0  0  0  0
   14.4763   36.3270   33.5733 C   0  0  0  0  0  0  0  0  0  0  0  0
   13.1179   37.6316   34.5689 C   0  0  0  0  0  0  0  0  0  0  0  0
   15.2067   35.6140   32.6744 N   0  0  0  0  0  0  0  0  0  0  0  0
   14.6731   36.2273   34.9186 C   0  0  0  0  0  0  0  0  0  0  0  0
   13.8223   37.0456   35.5785 N   0  0  0  0  0  0  0  0  0  0  0  0
   16.1639   34.7595   33.1551 C   0  0  0  0  0  0  0  0  0  0  0  0
   15.6515   35.3491   35.4134 C   0  0  0  0  0  0  0  0  0  0  0  0
   16.3793   34.6310   34.5045 N   0  0  0  0  0  0  0  0  0  0  0  0
   15.9002   35.1933   36.8093 N   0  0  0  0  0  0  0  0  0  0  0  0
    9.7831   45.0052   32.1587 H   0  0  0  0  0  0  0  0  0  0  0  0
   11.8826   45.7124   32.8982 H   0  0  0  0  0  0  0  0  0  0  0  0
   10.8100   46.9716   33.0947 H   0  0  0  0  0  0  0  0  0  0  0  0
    8.4024   46.6377   33.4151 H   0  0  0  0  0  0  0  0  0  0  0  0
    7.8146   44.9737   33.6838 H   0  0  0  0  0  0  0  0  0  0  0  0
   10.1411   48.2500   37.3464 H   0  0  0  0  0  0  0  0  0  0  0  0
   10.0472   46.5060   37.7345 H   0  0  0  0  0  0  0  0  0  0  0  0
    7.8384   49.4595   36.8259 H   0  0  0  0  0  0  0  0  0  0  0  0
    8.1801   45.7956   39.0795 H   0  0  0  0  0  0  0  0  0  0  0  0
    5.6322   49.8760   37.8584 H   0  0  0  0  0  0  0  0  0  0  0  0
    5.9748   46.2289   40.1001 H   0  0  0  0  0  0  0  0  0  0  0  0
    4.6973   48.2655   39.4951 H   0  0  0  0  0  0  0  0  0  0  0  0
    9.8235   40.7210   31.7580 H   0  0  0  0  0  0  0  0  0  0  0  0
   11.3856   41.5433   31.4688 H   0  0  0  0  0  0  0  0  0  0  0  0
   11.6994   39.5065   30.3487 H   0  0  0  0  0  0  0  0  0  0  0  0
   10.1121   38.2722   32.6632 H   0  0  0  0  0  0  0  0  0  0  0  0
   13.6816   37.4632   31.2269 H   0  0  0  0  0  0  0  0  0  0  0  0
    9.0037   37.3828   30.9349 H   0  0  0  0  0  0  0  0  0  0  0  0
   11.2846   36.3040   32.4928 H   0  0  0  0  0  0  0  0  0  0  0  0
   11.8849   36.9590   29.7588 H   0  0  0  0  0  0  0  0  0  0  0  0
   12.3363   38.3598   34.7441 H   0  0  0  0  0  0  0  0  0  0  0  0
   16.7574   34.1791   32.4623 H   0  0  0  0  0  0  0  0  0  0  0  0
   15.3529   35.7355   37.5141 H   0  0  0  0  0  0  0  0  0  0  0  0
   16.6363   34.5317   37.1418 H   0  0  0  0  0  0  0  0  0  0  0  0
  1  2  2  0
  1  3  1  0
  3  4  1  0
  4  5  1  0
  6  1  1  0
  7  6  1  0
  6  8  1  0
  8  9  1  0
  9 10  1  0
  9 11  2  0
 10 12  1  0
 12 13  1  0
 13 14  2  0
 15 13  1  0
 14 16  1  0
 17 15  2  0
 16 18  2  0
 18 17  1  0
  4 19  2  0
  4 20  1  0
 21 20  1  0
 21 22  1  0
 22 23  1  0
 22 24  1  0
 23 25  1  0
 24 26  1  0
 24 27  1  0
 27 25  1  0
 25 28  1  0
 27 29  1  0
 30 28  1  0
 31 28  1  0
 32 30  2  0
 30 33  1  0
 34 31  2  0
 35 32  1  0
 33 36  2  0
 33 34  1  0
 37 35  2  0
 37 36  1  0
 36 38  1  0
  6 39  1  6
  7 40  1  0
  7 41  1  0
  8 42  1  0
  8 43  1  0
 12 44  1  0
 12 45  1  0
 14 46  1  0
 15 47  1  0
 16 48  1  0
 17 49  1  0
 18 50  1  0
 21 51  1  0
 21 52  1  0
 22 53  1  0
 24 54  1  0
 25 55  1  0
 26 56  1  0
 27 57  1  0
 29 58  1  0
 31 59  1  0
 35 60  1  0
 38 61  1  0
 38 62  1  0
M  CHG  1   5  -1
M  END
>  <EmbedRMS>  (23) 
0.08786949431498077

$$$$

     RDKit          3D

 62 65  0  0  0  0  0  0  0  0999 V2000
   10.2865   43.7710   33.8017 C   0  0  0  0  0  0  0  0  0  0  0  0
   11.4091   43.5868   34.3579 O   0  0  0  0  0  0  0  0  0  0  0  0
    9.3669   42.7309   33.6986 O   0  0  0  0  0  0  0  0  0  0  0  0
    9.8849   41.2346   34.2847 P   0  0  0  0  0  5  0  0  0  0  0  0
   10.3654   41.4710   35.8749 O   0  0  0  0  0  1  0  0  0  0  0  0
    9.9516   45.1164   33.2556 C   0  0  2  0  0  0  0  0  0  0  0  0
   11.0720   46.0323   33.4787 N   0  0  0  0  0  0  0  0  0  0  0  0
    8.6616   45.6676   33.9000 C   0  0  0  0  0  0  0  0  0  0  0  0
    8.7703   45.7521   35.3934 C   0  0  0  0  0  0  0  0  0  0  0  0
    9.5768   46.7385   35.9704 O   0  0  0  0  0  0  0  0  0  0  0  0
    8.1800   44.9007   36.1130 O   0  0  0  0  0  0  0  0  0  0  0  0
    9.9963   46.6990   37.3318 C   0  0  0  0  0  0  0  0  0  0  0  0
   10.9863   45.5833   37.5301 C   0  0  0  0  0  0  0  0  0  0  0  0
   10.6270   44.4231   38.2362 C   0  0  0  0  0  0  0  0  0  0  0  0
   12.2622   45.6690   36.9497 C   0  0  0  0  0  0  0  0  0  0  0  0
   11.5375   43.3701   38.3688 C   0  0  0  0  0  0  0  0  0  0  0  0
   13.1693   44.6133   37.0837 C   0  0  0  0  0  0  0  0  0  0  0  0
   12.8072   43.4646   37.7925 C   0  0  0  0  0  0  0  0  0  0  0  0
    8.8077   40.1914   34.2093 O   0  0  0  0  0  0  0  0  0  0  0  0
   11.2368   40.7903   33.3694 O   0  0  0  0  0  0  0  0  0  0  0  0
   10.9156   40.6898   31.9963 C   0  0  0  0  0  0  0  0  0  0  0  0
   11.5270   39.3899   31.4376 C   0  0  0  0  0  0  0  0  0  0  0  0
   12.7508   39.0917   32.0839 O   0  0  0  0  0  0  0  0  0  0  0  0
   10.6122   38.1916   31.6453 C   0  0  0  0  0  0  0  0  0  0  0  0
   12.9429   37.6853   32.0296 C   0  0  0  0  0  0  0  0  0  0  0  0
    9.6070   38.0859   30.6603 O   0  0  0  0  0  0  0  0  0  0  0  0
   11.5845   37.0187   31.6880 C   0  0  0  0  0  0  0  0  0  0  0  0
   13.4899   37.2164   33.3250 N   0  0  0  0  0  0  0  0  0  0  0  0
   11.6201   36.3063   30.4693 O   0  0  0  0  0  0  0  0  0  0  0  0
   14.4758   36.3264   33.5739 C   0  0  0  0  0  0  0  0  0  0  0  0
   13.1176   37.6309   34.5700 C   0  0  0  0  0  0  0  0  0  0  0  0
   15.2065   35.6139   32.6746 N   0  0  0  0  0  0  0  0  0  0  0  0
   14.6731   36.2268   34.9191 C   0  0  0  0  0  0  0  0  0  0  0  0
   13.8225   37.0451   35.5793 N   0  0  0  0  0  0  0  0  0  0  0  0
   16.1640   34.7596   33.1551 C   0  0  0  0  0  0  0  0  0  0  0  0
   15.6517   35.3489   35.4136 C   0  0  0  0  0  0  0  0  0  0  0  0
   16.3795   34.6310   34.5046 N   0  0  0  0  0  0  0  0  0  0  0  0
   15.9006   35.1931   36.8094 N   0  0  0  0  0  0  0  0  0  0  0  0
    9.7781   45.0128   32.1609 H   0  0  0  0  0  0  0  0  0  0  0  0
   10.8145   46.9709   33.0955 H   0  0  0  0  0  0  0  0  0  0  0  0
   11.8840   45.7085   32.9030 H   0  0  0  0  0  0  0  0  0  0  0  0
    8.4452   46.6802   33.4969 H   0  0  0  0  0  0  0  0  0  0  0  0
    7.8020   45.0179   33.6236 H   0  0  0  0  0  0  0  0  0  0  0  0
    9.1142   46.5886   38.0001 H   0  0  0  0  0  0  0  0  0  0  0  0
   10.4831   47.6650   37.5828 H   0  0  0  0  0  0  0  0  0  0  0  0
    9.6422   44.3300   38.6767 H   0  0  0  0  0  0  0  0  0  0  0  0
   12.5488   46.5484   36.3861 H   0  0  0  0  0  0  0  0  0  0  0  0
   11.2561   42.4774   38.9122 H   0  0  0  0  0  0  0  0  0  0  0  0
   14.1505   44.6831   36.6322 H   0  0  0  0  0  0  0  0  0  0  0  0
   13.5087   42.6465   37.8918 H   0  0  0  0  0  0  0  0  0  0  0  0
   11.3827   41.5528   31.4752 H   0  0  0  0  0  0  0  0  0  0  0  0
    9.8255   40.7192   31.7590 H   0  0  0  0  0  0  0  0  0  0  0  0
   11.7318   39.5341   30.3522 H   0  0  0  0  0  0  0  0  0  0  0  0
   10.1214   38.2682   32.6413 H   0  0  0  0  0  0  0  0  0  0  0  0
   13.6882   37.4709   31.2320 H   0  0  0  0  0  0  0  0  0  0  0  0
   10.0257   38.1753   29.7657 H   0  0  0  0  0  0  0  0  0  0  0  0
   11.2796   36.3124   32.4916 H   0  0  0  0  0  0  0  0  0  0  0  0
   11.9872   36.9100   29.7715 H   0  0  0  0  0  0  0  0  0  0  0  0
   12.3367   38.3599   34.7454 H   0  0  0  0  0  0  0  0  0  0  0  0
   16.7576   34.1795   32.4622 H   0  0  0  0  0  0  0  0  0  0  0  0
   15.3533   35.7352   37.5144 H   0  0  0  0  0  0  0  0  0  0  0  0
   16.6368   34.5316   37.1418 H   0  0  0  0  0  0  0  0  0  0  0  0
  1  2  2  0
  1  3  1  0
  3  4  1  0
  4  5  1  0
  6  1  1  0
  7  6  1  0
  6  8  1  0
  8  9  1  0
  9 10  1  0
  9 11  2  0
 10 12  1  0
 12 13  1  0
 13 14  2  0
 15 13  1  0
 14 16  1  0
 17 15  2  0
 16 18  2  0
 18 17  1  0
  4 19  2  0
  4 20  1  0
 21 20  1  0
 21 22  1  0
 22 23  1  0
 22 24  1  0
 23 25  1  0
 24 26  1  0
 24 27  1  0
 27 25  1  0
 25 28  1  0
 27 29  1  0
 30 28  1  0
 31 28  1  0
 32 30  2  0
 30 33  1  0
 34 31  2  0
 35 32  1  0
 33 36  2  0
 33 34  1  0
 37 35  2  0
 37 36  1  0
 36 38  1  0
  6 39  1  6
  7 40  1  0
  7 41  1  0
  8 42  1  0
  8 43  1  0
 12 44  1  0
 12 45  1  0
 14 46  1  0
 15 47  1  0
 16 48  1  0
 17 49  1  0
 18 50  1  0
 21 51  1  0
 21 52  1  0
 22 53  1  0
 24 54  1  0
 25 55  1  0
 26 56  1  0
 27 57  1  0
 29 58  1  0
 31 59  1  0
 35 60  1  0
 38 61  1  0
 38 62  1  0
M  CHG  1   5  -1
M  END
>  <EmbedRMS>  (24) 
0.08689789007292888

$$$$

     RDKit          3D

 62 65  0  0  0  0  0  0  0  0999 V2000
   10.2798   43.7757   33.8098 C   0  0  0  0  0  0  0  0  0  0  0  0
   11.4063   43.5907   34.3581 O   0  0  0  0  0  0  0  0  0  0  0  0
    9.3674   42.7294   33.6981 O   0  0  0  0  0  0  0  0  0  0  0  0
    9.8861   41.2338   34.2838 P   0  0  0  0  0  5  0  0  0  0  0  0
   10.3659   41.4707   35.8742 O   0  0  0  0  0  1  0  0  0  0  0  0
    9.9469   45.1192   33.2564 C   0  0  2  0  0  0  0  0  0  0  0  0
   11.0794   46.0221   33.4716 N   0  0  0  0  0  0  0  0  0  0  0  0
    8.6694   45.7008   33.9015 C   0  0  0  0  0  0  0  0  0  0  0  0
    7.4391   44.9456   33.5006 C   0  0  0  0  0  0  0  0  0  0  0  0
    7.0263   44.9610   32.1637 O   0  0  0  0  0  0  0  0  0  0  0  0
    6.7880   44.3039   34.3697 O   0  0  0  0  0  0  0  0  0  0  0  0
    5.8986   44.2321   31.6848 C   0  0  0  0  0  0  0  0  0  0  0  0
    6.2148   42.7632   31.6102 C   0  0  0  0  0  0  0  0  0  0  0  0
    5.7002   41.8710   32.5658 C   0  0  0  0  0  0  0  0  0  0  0  0
    7.0519   42.2758   30.5935 C   0  0  0  0  0  0  0  0  0  0  0  0
    6.0052   40.5085   32.4923 C   0  0  0  0  0  0  0  0  0  0  0  0
    7.3474   40.9111   30.5188 C   0  0  0  0  0  0  0  0  0  0  0  0
    6.8255   40.0284   31.4682 C   0  0  0  0  0  0  0  0  0  0  0  0
    8.8095   40.1902   34.2095 O   0  0  0  0  0  0  0  0  0  0  0  0
   11.2386   40.7897   33.3692 O   0  0  0  0  0  0  0  0  0  0  0  0
   10.9181   40.6891   31.9961 C   0  0  0  0  0  0  0  0  0  0  0  0
   11.5266   39.3878   31.4367 C   0  0  0  0  0  0  0  0  0  0  0  0
   12.7496   39.0892   32.0817 O   0  0  0  0  0  0  0  0  0  0  0  0
   10.6120   38.1903   31.6456 C   0  0  0  0  0  0  0  0  0  0  0  0
   12.9370   37.6826   32.0301 C   0  0  0  0  0  0  0  0  0  0  0  0
    9.6163   38.0839   30.6520 O   0  0  0  0  0  0  0  0  0  0  0  0
   11.5786   37.0143   31.7016 C   0  0  0  0  0  0  0  0  0  0  0  0
   13.4904   37.2168   33.3242 N   0  0  0  0  0  0  0  0  0  0  0  0
   11.6209   36.3254   30.4729 O   0  0  0  0  0  0  0  0  0  0  0  0
   14.4762   36.3266   33.5731 C   0  0  0  0  0  0  0  0  0  0  0  0
   13.1180   37.6308   34.5694 C   0  0  0  0  0  0  0  0  0  0  0  0
   15.2064   35.6137   32.6740 N   0  0  0  0  0  0  0  0  0  0  0  0
   14.6735   36.2270   34.9184 C   0  0  0  0  0  0  0  0  0  0  0  0
   13.8228   37.0451   35.5787 N   0  0  0  0  0  0  0  0  0  0  0  0
   16.1639   34.7593   33.1547 C   0  0  0  0  0  0  0  0  0  0  0  0
   15.6518   35.3490   35.4131 C   0  0  0  0  0  0  0  0  0  0  0  0
   16.3794   34.6308   34.5042 N   0  0  0  0  0  0  0  0  0  0  0  0
   15.9005   35.1931   36.8090 N   0  0  0  0  0  0  0  0  0  0  0  0
    9.7900   45.0086   32.1602 H   0  0  0  0  0  0  0  0  0  0  0  0
   11.1411   46.2754   34.4857 H   0  0  0  0  0  0  0  0  0  0  0  0
   10.9066   46.9071   32.9413 H   0  0  0  0  0  0  0  0  0  0  0  0
    8.7704   45.7036   35.0097 H   0  0  0  0  0  0  0  0  0  0  0  0
    8.5395   46.7552   33.5757 H   0  0  0  0  0  0  0  0  0  0  0  0
    5.0151   44.4265   32.3318 H   0  0  0  0  0  0  0  0  0  0  0  0
    5.6448   44.6003   30.6682 H   0  0  0  0  0  0  0  0  0  0  0  0
    5.0626   42.2282   33.3648 H   0  0  0  0  0  0  0  0  0  0  0  0
    7.4695   42.9515   29.8574 H   0  0  0  0  0  0  0  0  0  0  0  0
    5.6062   39.8246   33.2302 H   0  0  0  0  0  0  0  0  0  0  0  0
    7.9889   40.5390   29.7304 H   0  0  0  0  0  0  0  0  0  0  0  0
    7.0596   38.9734   31.4136 H   0  0  0  0  0  0  0  0  0  0  0  0
    9.8303   40.7195   31.7609 H   0  0  0  0  0  0  0  0  0  0  0  0
   11.3852   41.5515   31.4743 H   0  0  0  0  0  0  0  0  0  0  0  0
   11.7295   39.5303   30.3507 H   0  0  0  0  0  0  0  0  0  0  0  0
   10.1118   38.2734   32.6364 H   0  0  0  0  0  0  0  0  0  0  0  0
   13.6720   37.4630   31.2239 H   0  0  0  0  0  0  0  0  0  0  0  0
   10.0548   38.1152   29.7623 H   0  0  0  0  0  0  0  0  0  0  0  0
   11.2633   36.3146   32.5112 H   0  0  0  0  0  0  0  0  0  0  0  0
   12.1532   35.5029   30.6325 H   0  0  0  0  0  0  0  0  0  0  0  0
   12.3360   38.3585   34.7450 H   0  0  0  0  0  0  0  0  0  0  0  0
   16.7573   34.1789   32.4618 H   0  0  0  0  0  0  0  0  0  0  0  0
   15.3533   35.7353   37.5139 H   0  0  0  0  0  0  0  0  0  0  0  0
   16.6366   34.5314   37.1414 H   0  0  0  0  0  0  0  0  0  0  0  0
  1  2  2  0
  1  3  1  0
  3  4  1  0
  4  5  1  0
  6  1  1  0
  7  6  1  0
  6  8  1  0
  8  9  1  0
  9 10  1  0
  9 11  2  0
 10 12  1  0
 12 13  1  0
 13 14  2  0
 15 13  1  0
 14 16  1  0
 17 15  2  0
 16 18  2  0
 18 17  1  0
  4 19  2  0
  4 20  1  0
 21 20  1  0
 21 22  1  0
 22 23  1  0
 22 24  1  0
 23 25  1  0
 24 26  1  0
 24 27  1  0
 27 25  1  0
 25 28  1  0
 27 29  1  0
 30 28  1  0
 31 28  1  0
 32 30  2  0
 30 33  1  0
 34 31  2  0
 35 32  1  0
 33 36  2  0
 33 34  1  0
 37 35  2  0
 37 36  1  0
 36 38  1  0
  6 39  1  6
  7 40  1  0
  7 41  1  0
  8 42  1  0
  8 43  1  0
 12 44  1  0
 12 45  1  0
 14 46  1  0
 15 47  1  0
 16 48  1  0
 17 49  1  0
 18 50  1  0
 21 51  1  0
 21 52  1  0
 22 53  1  0
 24 54  1  0
 25 55  1  0
 26 56  1  0
 27 57  1  0
 29 58  1  0
 31 59  1  0
 35 60  1  0
 38 61  1  0
 38 62  1  0
M  CHG  1   5  -1
M  END
>  <EmbedRMS>  (25) 
0.08802402966107781

$$$$

     RDKit          3D

 62 65  0  0  0  0  0  0  0  0999 V2000
   10.2871   43.7715   33.8026 C   0  0  0  0  0  0  0  0  0  0  0  0
   11.4090   43.5882   34.3603 O   0  0  0  0  0  0  0  0  0  0  0  0
    9.3676   42.7310   33.6993 O   0  0  0  0  0  0  0  0  0  0  0  0
    9.8851   41.2342   34.2842 P   0  0  0  0  0  5  0  0  0  0  0  0
   10.3674   41.4690   35.8735 O   0  0  0  0  0  1  0  0  0  0  0  0
    9.9540   45.1147   33.2511 C   0  0  2  0  0  0  0  0  0  0  0  0
   11.0693   46.0350   33.4803 N   0  0  0  0  0  0  0  0  0  0  0  0
    8.6562   45.6649   33.8781 C   0  0  0  0  0  0  0  0  0  0  0  0
    8.7831   45.8846   35.3571 C   0  0  0  0  0  0  0  0  0  0  0  0
    8.7823   44.7822   36.2157 O   0  0  0  0  0  0  0  0  0  0  0  0
    8.9151   47.0542   35.8106 O   0  0  0  0  0  0  0  0  0  0  0  0
    8.8965   44.9017   37.6287 C   0  0  0  0  0  0  0  0  0  0  0  0
    8.9682   43.5296   38.2322 C   0  0  0  0  0  0  0  0  0  0  0  0
   10.1795   43.0347   38.7447 C   0  0  0  0  0  0  0  0  0  0  0  0
    7.8304   42.7065   38.2376 C   0  0  0  0  0  0  0  0  0  0  0  0
   10.2446   41.7396   39.2687 C   0  0  0  0  0  0  0  0  0  0  0  0
    7.9005   41.4114   38.7605 C   0  0  0  0  0  0  0  0  0  0  0  0
    9.1063   40.9288   39.2768 C   0  0  0  0  0  0  0  0  0  0  0  0
    8.8072   40.1917   34.2096 O   0  0  0  0  0  0  0  0  0  0  0  0
   11.2363   40.7903   33.3674 O   0  0  0  0  0  0  0  0  0  0  0  0
   10.9133   40.6859   31.9948 C   0  0  0  0  0  0  0  0  0  0  0  0
   11.5168   39.3798   31.4410 C   0  0  0  0  0  0  0  0  0  0  0  0
   12.7487   39.0887   32.0763 O   0  0  0  0  0  0  0  0  0  0  0  0
   10.6051   38.1876   31.6660 C   0  0  0  0  0  0  0  0  0  0  0  0
   12.9411   37.6829   32.0278 C   0  0  0  0  0  0  0  0  0  0  0  0
    9.6358   38.0930   30.6503 O   0  0  0  0  0  0  0  0  0  0  0  0
   11.5827   37.0179   31.6937 C   0  0  0  0  0  0  0  0  0  0  0  0
   13.4908   37.2177   33.3240 N   0  0  0  0  0  0  0  0  0  0  0  0
   11.6141   36.3180   30.4675 O   0  0  0  0  0  0  0  0  0  0  0  0
   14.4762   36.3270   33.5734 C   0  0  0  0  0  0  0  0  0  0  0  0
   13.1179   37.6317   34.5690 C   0  0  0  0  0  0  0  0  0  0  0  0
   15.2066   35.6140   32.6744 N   0  0  0  0  0  0  0  0  0  0  0  0
   14.6731   36.2273   34.9187 C   0  0  0  0  0  0  0  0  0  0  0  0
   13.8223   37.0456   35.5786 N   0  0  0  0  0  0  0  0  0  0  0  0
   16.1639   34.7595   33.1551 C   0  0  0  0  0  0  0  0  0  0  0  0
   15.6515   35.3492   35.4135 C   0  0  0  0  0  0  0  0  0  0  0  0
   16.3792   34.6310   34.5046 N   0  0  0  0  0  0  0  0  0  0  0  0
   15.9002   35.1934   36.8093 N   0  0  0  0  0  0  0  0  0  0  0  0
    9.7907   45.0045   32.1554 H   0  0  0  0  0  0  0  0  0  0  0  0
   10.8073   46.9734   33.0992 H   0  0  0  0  0  0  0  0  0  0  0  0
   11.8837   45.7169   32.9047 H   0  0  0  0  0  0  0  0  0  0  0  0
    7.8189   44.9584   33.6903 H   0  0  0  0  0  0  0  0  0  0  0  0
    8.3862   46.6227   33.3817 H   0  0  0  0  0  0  0  0  0  0  0  0
    9.8053   45.4904   37.8829 H   0  0  0  0  0  0  0  0  0  0  0  0
    8.0106   45.4398   38.0303 H   0  0  0  0  0  0  0  0  0  0  0  0
   11.0730   43.6464   38.7340 H   0  0  0  0  0  0  0  0  0  0  0  0
    6.8929   43.0664   37.8319 H   0  0  0  0  0  0  0  0  0  0  0  0
   11.1793   41.3625   39.6632 H   0  0  0  0  0  0  0  0  0  0  0  0
    7.0209   40.7808   38.7623 H   0  0  0  0  0  0  0  0  0  0  0  0
    9.1594   39.9256   39.6795 H   0  0  0  0  0  0  0  0  0  0  0  0
   11.3853   41.5434   31.4692 H   0  0  0  0  0  0  0  0  0  0  0  0
    9.8232   40.7209   31.7583 H   0  0  0  0  0  0  0  0  0  0  0  0
   11.6992   39.5066   30.3488 H   0  0  0  0  0  0  0  0  0  0  0  0
   10.1120   38.2722   32.6632 H   0  0  0  0  0  0  0  0  0  0  0  0
   13.6816   37.4633   31.2270 H   0  0  0  0  0  0  0  0  0  0  0  0
    9.0036   37.3828   30.9350 H   0  0  0  0  0  0  0  0  0  0  0  0
   11.2846   36.3040   32.4929 H   0  0  0  0  0  0  0  0  0  0  0  0
   11.8850   36.9591   29.7589 H   0  0  0  0  0  0  0  0  0  0  0  0
   12.3363   38.3600   34.7442 H   0  0  0  0  0  0  0  0  0  0  0  0
   16.7574   34.1791   32.4623 H   0  0  0  0  0  0  0  0  0  0  0  0
   16.6362   34.5317   37.1418 H   0  0  0  0  0  0  0  0  0  0  0  0
   15.3529   35.7356   37.5141 H   0  0  0  0  0  0  0  0  0  0  0  0
  1  2  2  0
  1  3  1  0
  3  4  1  0
  4  5  1  0
  6  1  1  0
  7  6  1  0
  6  8  1  0
  8  9  1  0
  9 10  1  0
  9 11  2  0
 10 12  1  0
 12 13  1  0
 13 14  2  0
 15 13  1  0
 14 16  1  0
 17 15  2  0
 16 18  2  0
 18 17  1  0
  4 19  2  0
  4 20  1  0
 21 20  1  0
 21 22  1  0
 22 23  1  0
 22 24  1  0
 23 25  1  0
 24 26  1  0
 24 27  1  0
 27 25  1  0
 25 28  1  0
 27 29  1  0
 30 28  1  0
 31 28  1  0
 32 30  2  0
 30 33  1  0
 34 31  2  0
 35 32  1  0
 33 36  2  0
 33 34  1  0
 37 35  2  0
 37 36  1  0
 36 38  1  0
  6 39  1  6
  7 40  1  0
  7 41  1  0
  8 42  1  0
  8 43  1  0
 12 44  1  0
 12 45  1  0
 14 46  1  0
 15 47  1  0
 16 48  1  0
 17 49  1  0
 18 50  1  0
 21 51  1  0
 21 52  1  0
 22 53  1  0
 24 54  1  0
 25 55  1  0
 26 56  1  0
 27 57  1  0
 29 58  1  0
 31 59  1  0
 35 60  1  0
 38 61  1  0
 38 62  1  0
M  CHG  1   5  -1
M  END
>  <EmbedRMS>  (26) 
0.0878801626552766

$$$$

     RDKit          3D

 62 65  0  0  0  0  0  0  0  0999 V2000
   10.2846   43.7740   33.8069 C   0  0  0  0  0  0  0  0  0  0  0  0
   11.4070   43.5902   34.3637 O   0  0  0  0  0  0  0  0  0  0  0  0
    9.3682   42.7308   33.6987 O   0  0  0  0  0  0  0  0  0  0  0  0
    9.8864   41.2339   34.2832 P   0  0  0  0  0  5  0  0  0  0  0  0
   10.3659   41.4694   35.8740 O   0  0  0  0  0  1  0  0  0  0  0  0
    9.9497   45.1157   33.2543 C   0  0  2  0  0  0  0  0  0  0  0  0
   11.0750   46.0287   33.4734 N   0  0  0  0  0  0  0  0  0  0  0  0
    8.6759   45.6515   33.9385 C   0  0  0  0  0  0  0  0  0  0  0  0
    8.2027   46.9171   33.2946 C   0  0  0  0  0  0  0  0  0  0  0  0
    7.7019   46.8760   31.9890 O   0  0  0  0  0  0  0  0  0  0  0  0
    8.2933   48.0107   33.9167 O   0  0  0  0  0  0  0  0  0  0  0  0
    7.4502   48.0458   31.2148 C   0  0  0  0  0  0  0  0  0  0  0  0
    8.7488   48.7090   30.8435 C   0  0  0  0  0  0  0  0  0  0  0  0
    9.0630   49.9911   31.3243 C   0  0  0  0  0  0  0  0  0  0  0  0
    9.6766   48.0285   30.0380 C   0  0  0  0  0  0  0  0  0  0  0  0
   10.2867   50.5842   30.9976 C   0  0  0  0  0  0  0  0  0  0  0  0
   10.8994   48.6245   29.7150 C   0  0  0  0  0  0  0  0  0  0  0  0
   11.2041   49.9017   30.1938 C   0  0  0  0  0  0  0  0  0  0  0  0
    8.8087   40.1911   34.2072 O   0  0  0  0  0  0  0  0  0  0  0  0
   11.2391   40.7900   33.3683 O   0  0  0  0  0  0  0  0  0  0  0  0
   10.9199   40.6895   31.9945 C   0  0  0  0  0  0  0  0  0  0  0  0
   11.5173   39.3800   31.4395 C   0  0  0  0  0  0  0  0  0  0  0  0
   12.7480   39.0860   32.0732 O   0  0  0  0  0  0  0  0  0  0  0  0
   10.6032   38.1891   31.6666 C   0  0  0  0  0  0  0  0  0  0  0  0
   12.9336   37.6795   32.0279 C   0  0  0  0  0  0  0  0  0  0  0  0
    9.6397   38.0777   30.6456 O   0  0  0  0  0  0  0  0  0  0  0  0
   11.5739   37.0154   31.7057 C   0  0  0  0  0  0  0  0  0  0  0  0
   13.4903   37.2177   33.3231 N   0  0  0  0  0  0  0  0  0  0  0  0
   11.6210   36.3376   30.4695 O   0  0  0  0  0  0  0  0  0  0  0  0
   14.4761   36.3273   33.5725 C   0  0  0  0  0  0  0  0  0  0  0  0
   13.1179   37.6316   34.5684 C   0  0  0  0  0  0  0  0  0  0  0  0
   15.2063   35.6139   32.6737 N   0  0  0  0  0  0  0  0  0  0  0  0
   14.6734   36.2277   34.9180 C   0  0  0  0  0  0  0  0  0  0  0  0
   13.8225   37.0459   35.5779 N   0  0  0  0  0  0  0  0  0  0  0  0
   16.1636   34.7594   33.1546 C   0  0  0  0  0  0  0  0  0  0  0  0
   15.6515   35.3494   35.4129 C   0  0  0  0  0  0  0  0  0  0  0  0
   16.3791   34.6311   34.5041 N   0  0  0  0  0  0  0  0  0  0  0  0
   15.9001   35.1935   36.8088 N   0  0  0  0  0  0  0  0  0  0  0  0
    9.7669   45.0036   32.1612 H   0  0  0  0  0  0  0  0  0  0  0  0
   11.8961   45.6772   32.9276 H   0  0  0  0  0  0  0  0  0  0  0  0
   10.8464   46.9550   33.0455 H   0  0  0  0  0  0  0  0  0  0  0  0
    7.8570   44.9042   33.8559 H   0  0  0  0  0  0  0  0  0  0  0  0
    8.8712   45.8244   35.0203 H   0  0  0  0  0  0  0  0  0  0  0  0
    6.9191   47.7504   30.2856 H   0  0  0  0  0  0  0  0  0  0  0  0
    6.7815   48.7347   31.7762 H   0  0  0  0  0  0  0  0  0  0  0  0
    8.3658   50.5288   31.9547 H   0  0  0  0  0  0  0  0  0  0  0  0
    9.4546   47.0352   29.6677 H   0  0  0  0  0  0  0  0  0  0  0  0
   10.5251   51.5720   31.3704 H   0  0  0  0  0  0  0  0  0  0  0  0
   11.6119   48.0952   29.0956 H   0  0  0  0  0  0  0  0  0  0  0  0
   12.1514   50.3615   29.9437 H   0  0  0  0  0  0  0  0  0  0  0  0
   11.4018   41.5436   31.4726 H   0  0  0  0  0  0  0  0  0  0  0  0
    9.8321   40.7399   31.7543 H   0  0  0  0  0  0  0  0  0  0  0  0
   11.6985   39.5041   30.3468 H   0  0  0  0  0  0  0  0  0  0  0  0
   10.1091   38.2633   32.6649 H   0  0  0  0  0  0  0  0  0  0  0  0
   13.6656   37.4538   31.2207 H   0  0  0  0  0  0  0  0  0  0  0  0
    8.8967   38.6902   30.8851 H   0  0  0  0  0  0  0  0  0  0  0  0
   11.2845   36.3060   32.5175 H   0  0  0  0  0  0  0  0  0  0  0  0
   10.8523   35.7094   30.4590 H   0  0  0  0  0  0  0  0  0  0  0  0
   12.3353   38.3588   34.7439 H   0  0  0  0  0  0  0  0  0  0  0  0
   16.7570   34.1788   32.4619 H   0  0  0  0  0  0  0  0  0  0  0  0
   16.6360   34.5317   37.1414 H   0  0  0  0  0  0  0  0  0  0  0  0
   15.3529   35.7359   37.5136 H   0  0  0  0  0  0  0  0  0  0  0  0
  1  2  2  0
  1  3  1  0
  3  4  1  0
  4  5  1  0
  6  1  1  0
  7  6  1  0
  6  8  1  0
  8  9  1  0
  9 10  1  0
  9 11  2  0
 10 12  1  0
 12 13  1  0
 13 14  2  0
 15 13  1  0
 14 16  1  0
 17 15  2  0
 16 18  2  0
 18 17  1  0
  4 19  2  0
  4 20  1  0
 21 20  1  0
 21 22  1  0
 22 23  1  0
 22 24  1  0
 23 25  1  0
 24 26  1  0
 24 27  1  0
 27 25  1  0
 25 28  1  0
 27 29  1  0
 30 28  1  0
 31 28  1  0
 32 30  2  0
 30 33  1  0
 34 31  2  0
 35 32  1  0
 33 36  2  0
 33 34  1  0
 37 35  2  0
 37 36  1  0
 36 38  1  0
  6 39  1  6
  7 40  1  0
  7 41  1  0
  8 42  1  0
  8 43  1  0
 12 44  1  0
 12 45  1  0
 14 46  1  0
 15 47  1  0
 16 48  1  0
 17 49  1  0
 18 50  1  0
 21 51  1  0
 21 52  1  0
 22 53  1  0
 24 54  1  0
 25 55  1  0
 26 56  1  0
 27 57  1  0
 29 58  1  0
 31 59  1  0
 35 60  1  0
 38 61  1  0
 38 62  1  0
M  CHG  1   5  -1
M  END
>  <EmbedRMS>  (27) 
0.08951560682793118

$$$$

     RDKit          3D

 62 65  0  0  0  0  0  0  0  0999 V2000
   10.2872   43.7712   33.8023 C   0  0  0  0  0  0  0  0  0  0  0  0
   11.4094   43.5878   34.3593 O   0  0  0  0  0  0  0  0  0  0  0  0
    9.3681   42.7305   33.6980 O   0  0  0  0  0  0  0  0  0  0  0  0
    9.8853   41.2342   34.2842 P   0  0  0  0  0  5  0  0  0  0  0  0
   10.3652   41.4712   35.8747 O   0  0  0  0  0  1  0  0  0  0  0  0
    9.9520   45.1155   33.2555 C   0  0  2  0  0  0  0  0  0  0  0  0
   11.0707   46.0335   33.4778 N   0  0  0  0  0  0  0  0  0  0  0  0
    8.6622   45.6647   33.8986 C   0  0  0  0  0  0  0  0  0  0  0  0
    8.7960   45.8395   35.3824 C   0  0  0  0  0  0  0  0  0  0  0  0
    8.5620   44.7470   36.2252 O   0  0  0  0  0  0  0  0  0  0  0  0
    9.1580   46.9523   35.8528 O   0  0  0  0  0  0  0  0  0  0  0  0
    8.6768   44.8131   37.6444 C   0  0  0  0  0  0  0  0  0  0  0  0
    7.5305   45.5929   38.2273 C   0  0  0  0  0  0  0  0  0  0  0  0
    6.2273   45.0734   38.1664 C   0  0  0  0  0  0  0  0  0  0  0  0
    7.7437   46.8535   38.8100 C   0  0  0  0  0  0  0  0  0  0  0  0
    5.1538   45.8013   38.6893 C   0  0  0  0  0  0  0  0  0  0  0  0
    6.6674   47.5783   39.3317 C   0  0  0  0  0  0  0  0  0  0  0  0
    5.3737   47.0524   39.2722 C   0  0  0  0  0  0  0  0  0  0  0  0
    8.8075   40.1916   34.2090 O   0  0  0  0  0  0  0  0  0  0  0  0
   11.2371   40.7891   33.3688 O   0  0  0  0  0  0  0  0  0  0  0  0
   10.9163   40.6888   31.9955 C   0  0  0  0  0  0  0  0  0  0  0  0
   11.5252   39.3872   31.4365 C   0  0  0  0  0  0  0  0  0  0  0  0
   12.7487   39.0878   32.0802 O   0  0  0  0  0  0  0  0  0  0  0  0
   10.6101   38.1909   31.6471 C   0  0  0  0  0  0  0  0  0  0  0  0
   12.9348   37.6807   32.0292 C   0  0  0  0  0  0  0  0  0  0  0  0
    9.6127   38.0875   30.6547 O   0  0  0  0  0  0  0  0  0  0  0  0
   11.5767   37.0133   31.7025 C   0  0  0  0  0  0  0  0  0  0  0  0
   13.4901   37.2165   33.3236 N   0  0  0  0  0  0  0  0  0  0  0  0
   11.6321   36.3231   30.4741 O   0  0  0  0  0  0  0  0  0  0  0  0
   14.4763   36.3266   33.5728 C   0  0  0  0  0  0  0  0  0  0  0  0
   13.1179   37.6307   34.5689 C   0  0  0  0  0  0  0  0  0  0  0  0
   15.2065   35.6135   32.6739 N   0  0  0  0  0  0  0  0  0  0  0  0
   14.6736   36.2272   34.9182 C   0  0  0  0  0  0  0  0  0  0  0  0
   13.8228   37.0453   35.5783 N   0  0  0  0  0  0  0  0  0  0  0  0
   16.1640   34.7592   33.1547 C   0  0  0  0  0  0  0  0  0  0  0  0
   15.6519   35.3491   35.4131 C   0  0  0  0  0  0  0  0  0  0  0  0
   16.3795   34.6309   34.5042 N   0  0  0  0  0  0  0  0  0  0  0  0
   15.9004   35.1933   36.8089 N   0  0  0  0  0  0  0  0  0  0  0  0
    9.7781   45.0093   32.1611 H   0  0  0  0  0  0  0  0  0  0  0  0
   10.8083   46.9725   33.0984 H   0  0  0  0  0  0  0  0  0  0  0  0
   11.8806   45.7138   32.8968 H   0  0  0  0  0  0  0  0  0  0  0  0
    8.4029   46.6408   33.4334 H   0  0  0  0  0  0  0  0  0  0  0  0
    7.8161   44.9744   33.6905 H   0  0  0  0  0  0  0  0  0  0  0  0
    9.6586   45.2536   37.9255 H   0  0  0  0  0  0  0  0  0  0  0  0
    8.6525   43.7796   38.0501 H   0  0  0  0  0  0  0  0  0  0  0  0
    6.0444   44.1070   37.7129 H   0  0  0  0  0  0  0  0  0  0  0  0
    8.7396   47.2759   38.8588 H   0  0  0  0  0  0  0  0  0  0  0  0
    4.1513   45.3962   38.6411 H   0  0  0  0  0  0  0  0  0  0  0  0
    6.8360   48.5486   39.7805 H   0  0  0  0  0  0  0  0  0  0  0  0
    4.5419   47.6151   39.6757 H   0  0  0  0  0  0  0  0  0  0  0  0
    9.8263   40.7205   31.7579 H   0  0  0  0  0  0  0  0  0  0  0  0
   11.3853   41.5506   31.4742 H   0  0  0  0  0  0  0  0  0  0  0  0
   11.7273   39.5288   30.3502 H   0  0  0  0  0  0  0  0  0  0  0  0
   10.1122   38.2731   32.6390 H   0  0  0  0  0  0  0  0  0  0  0  0
   13.6685   37.4590   31.2224 H   0  0  0  0  0  0  0  0  0  0  0  0
   10.0514   38.1111   29.7648 H   0  0  0  0  0  0  0  0  0  0  0  0
   11.2801   36.3128   32.5195 H   0  0  0  0  0  0  0  0  0  0  0  0
   10.8624   35.6960   30.4645 H   0  0  0  0  0  0  0  0  0  0  0  0
   12.3356   38.3581   34.7444 H   0  0  0  0  0  0  0  0  0  0  0  0
   16.7575   34.1787   32.4620 H   0  0  0  0  0  0  0  0  0  0  0  0
   15.3531   35.7355   37.5138 H   0  0  0  0  0  0  0  0  0  0  0  0
   16.6364   34.5315   37.1415 H   0  0  0  0  0  0  0  0  0  0  0  0
  1  2  2  0
  1  3  1  0
  3  4  1  0
  4  5  1  0
  6  1  1  0
  7  6  1  0
  6  8  1  0
  8  9  1  0
  9 10  1  0
  9 11  2  0
 10 12  1  0
 12 13  1  0
 13 14  2  0
 15 13  1  0
 14 16  1  0
 17 15  2  0
 16 18  2  0
 18 17  1  0
  4 19  2  0
  4 20  1  0
 21 20  1  0
 21 22  1  0
 22 23  1  0
 22 24  1  0
 23 25  1  0
 24 26  1  0
 24 27  1  0
 27 25  1  0
 25 28  1  0
 27 29  1  0
 30 28  1  0
 31 28  1  0
 32 30  2  0
 30 33  1  0
 34 31  2  0
 35 32  1  0
 33 36  2  0
 33 34  1  0
 37 35  2  0
 37 36  1  0
 36 38  1  0
  6 39  1  6
  7 40  1  0
  7 41  1  0
  8 42  1  0
  8 43  1  0
 12 44  1  0
 12 45  1  0
 14 46  1  0
 15 47  1  0
 16 48  1  0
 17 49  1  0
 18 50  1  0
 21 51  1  0
 21 52  1  0
 22 53  1  0
 24 54  1  0
 25 55  1  0
 26 56  1  0
 27 57  1  0
 29 58  1  0
 31 59  1  0
 35 60  1  0
 38 61  1  0
 38 62  1  0
M  CHG  1   5  -1
M  END
>  <EmbedRMS>  (28) 
0.08816524020689447

$$$$

     RDKit          3D

 62 65  0  0  0  0  0  0  0  0999 V2000
   10.2871   43.7712   33.8023 C   0  0  0  0  0  0  0  0  0  0  0  0
   11.4094   43.5878   34.3592 O   0  0  0  0  0  0  0  0  0  0  0  0
    9.3678   42.7307   33.6983 O   0  0  0  0  0  0  0  0  0  0  0  0
    9.8849   41.2345   34.2847 P   0  0  0  0  0  5  0  0  0  0  0  0
   10.3649   41.4713   35.8752 O   0  0  0  0  0  1  0  0  0  0  0  0
    9.9517   45.1157   33.2562 C   0  0  2  0  0  0  0  0  0  0  0  0
   11.0709   46.0333   33.4773 N   0  0  0  0  0  0  0  0  0  0  0  0
    8.6630   45.6652   33.9014 C   0  0  0  0  0  0  0  0  0  0  0  0
    8.7997   45.8405   35.3849 C   0  0  0  0  0  0  0  0  0  0  0  0
    8.5682   44.7480   36.2285 O   0  0  0  0  0  0  0  0  0  0  0  0
    9.1623   46.9536   35.8543 O   0  0  0  0  0  0  0  0  0  0  0  0
    8.6890   44.8136   37.6472 C   0  0  0  0  0  0  0  0  0  0  0  0
    7.5458   45.5944   38.2352 C   0  0  0  0  0  0  0  0  0  0  0  0
    7.7626   46.8547   38.8171 C   0  0  0  0  0  0  0  0  0  0  0  0
    6.2420   45.0757   38.1802 C   0  0  0  0  0  0  0  0  0  0  0  0
    6.6892   47.5801   39.3438 C   0  0  0  0  0  0  0  0  0  0  0  0
    5.1715   45.8043   38.7082 C   0  0  0  0  0  0  0  0  0  0  0  0
    5.3949   47.0552   39.2902 C   0  0  0  0  0  0  0  0  0  0  0  0
    8.8074   40.1916   34.2091 O   0  0  0  0  0  0  0  0  0  0  0  0
   11.2367   40.7898   33.3695 O   0  0  0  0  0  0  0  0  0  0  0  0
   10.9156   40.6897   31.9963 C   0  0  0  0  0  0  0  0  0  0  0  0
   11.5270   39.3898   31.4375 C   0  0  0  0  0  0  0  0  0  0  0  0
   12.7508   39.0916   32.0838 O   0  0  0  0  0  0  0  0  0  0  0  0
   10.6122   38.1916   31.6452 C   0  0  0  0  0  0  0  0  0  0  0  0
   12.9429   37.6852   32.0295 C   0  0  0  0  0  0  0  0  0  0  0  0
    9.6070   38.0858   30.6603 O   0  0  0  0  0  0  0  0  0  0  0  0
   11.5845   37.0186   31.6879 C   0  0  0  0  0  0  0  0  0  0  0  0
   13.4899   37.2163   33.3250 N   0  0  0  0  0  0  0  0  0  0  0  0
   11.6201   36.3063   30.4692 O   0  0  0  0  0  0  0  0  0  0  0  0
   14.4759   36.3263   33.5739 C   0  0  0  0  0  0  0  0  0  0  0  0
   13.1175   37.6307   34.5699 C   0  0  0  0  0  0  0  0  0  0  0  0
   15.2065   35.6139   32.6746 N   0  0  0  0  0  0  0  0  0  0  0  0
   14.6731   36.2267   34.9191 C   0  0  0  0  0  0  0  0  0  0  0  0
   13.8224   37.0450   35.5792 N   0  0  0  0  0  0  0  0  0  0  0  0
   16.1640   34.7596   33.1551 C   0  0  0  0  0  0  0  0  0  0  0  0
   15.6517   35.3489   35.4136 C   0  0  0  0  0  0  0  0  0  0  0  0
   16.3795   34.6310   34.5046 N   0  0  0  0  0  0  0  0  0  0  0  0
   15.9006   35.1931   36.8094 N   0  0  0  0  0  0  0  0  0  0  0  0
    9.7762   45.0099   32.1620 H   0  0  0  0  0  0  0  0  0  0  0  0
   10.8084   46.9725   33.0983 H   0  0  0  0  0  0  0  0  0  0  0  0
   11.8800   45.7135   32.8954 H   0  0  0  0  0  0  0  0  0  0  0  0
    8.4030   46.6412   33.4364 H   0  0  0  0  0  0  0  0  0  0  0  0
    7.8165   44.9749   33.6951 H   0  0  0  0  0  0  0  0  0  0  0  0
    8.6656   43.7801   38.0528 H   0  0  0  0  0  0  0  0  0  0  0  0
    9.6724   45.2533   37.9242 H   0  0  0  0  0  0  0  0  0  0  0  0
    8.7590   47.2763   38.8614 H   0  0  0  0  0  0  0  0  0  0  0  0
    6.0563   44.1095   37.7274 H   0  0  0  0  0  0  0  0  0  0  0  0
    6.8606   48.5503   39.7921 H   0  0  0  0  0  0  0  0  0  0  0  0
    4.1685   45.3999   38.6646 H   0  0  0  0  0  0  0  0  0  0  0  0
    4.5653   47.6183   39.6977 H   0  0  0  0  0  0  0  0  0  0  0  0
    9.8255   40.7190   31.7589 H   0  0  0  0  0  0  0  0  0  0  0  0
   11.3827   41.5526   31.4753 H   0  0  0  0  0  0  0  0  0  0  0  0
   11.7318   39.5340   30.3521 H   0  0  0  0  0  0  0  0  0  0  0  0
   10.1214   38.2681   32.6413 H   0  0  0  0  0  0  0  0  0  0  0  0
   13.6882   37.4707   31.2319 H   0  0  0  0  0  0  0  0  0  0  0  0
   10.0257   38.1751   29.7656 H   0  0  0  0  0  0  0  0  0  0  0  0
   11.2796   36.3123   32.4915 H   0  0  0  0  0  0  0  0  0  0  0  0
   11.9871   36.9100   29.7714 H   0  0  0  0  0  0  0  0  0  0  0  0
   12.3365   38.3595   34.7453 H   0  0  0  0  0  0  0  0  0  0  0  0
   16.7577   34.1794   32.4622 H   0  0  0  0  0  0  0  0  0  0  0  0
   15.3531   35.7351   37.5143 H   0  0  0  0  0  0  0  0  0  0  0  0
   16.6368   34.5316   37.1419 H   0  0  0  0  0  0  0  0  0  0  0  0
  1  2  2  0
  1  3  1  0
  3  4  1  0
  4  5  1  0
  6  1  1  0
  7  6  1  0
  6  8  1  0
  8  9  1  0
  9 10  1  0
  9 11  2  0
 10 12  1  0
 12 13  1  0
 13 14  2  0
 15 13  1  0
 14 16  1  0
 17 15  2  0
 16 18  2  0
 18 17  1  0
  4 19  2  0
  4 20  1  0
 21 20  1  0
 21 22  1  0
 22 23  1  0
 22 24  1  0
 23 25  1  0
 24 26  1  0
 24 27  1  0
 27 25  1  0
 25 28  1  0
 27 29  1  0
 30 28  1  0
 31 28  1  0
 32 30  2  0
 30 33  1  0
 34 31  2  0
 35 32  1  0
 33 36  2  0
 33 34  1  0
 37 35  2  0
 37 36  1  0
 36 38  1  0
  6 39  1  6
  7 40  1  0
  7 41  1  0
  8 42  1  0
  8 43  1  0
 12 44  1  0
 12 45  1  0
 14 46  1  0
 15 47  1  0
 16 48  1  0
 17 49  1  0
 18 50  1  0
 21 51  1  0
 21 52  1  0
 22 53  1  0
 24 54  1  0
 25 55  1  0
 26 56  1  0
 27 57  1  0
 29 58  1  0
 31 59  1  0
 35 60  1  0
 38 61  1  0
 38 62  1  0
M  CHG  1   5  -1
M  END
>  <EmbedRMS>  (29) 
0.08702666886935029

$$$$

     RDKit          3D

 62 65  0  0  0  0  0  0  0  0999 V2000
   10.2862   43.7709   33.8098 C   0  0  0  0  0  0  0  0  0  0  0  0
   11.4100   43.5818   34.3616 O   0  0  0  0  0  0  0  0  0  0  0  0
    9.3668   42.7309   33.7019 O   0  0  0  0  0  0  0  0  0  0  0  0
    9.8846   41.2329   34.2841 P   0  0  0  0  0  5  0  0  0  0  0  0
   10.3655   41.4677   35.8747 O   0  0  0  0  0  1  0  0  0  0  0  0
    9.9610   45.1121   33.2469 C   0  0  2  0  0  0  0  0  0  0  0  0
   11.0654   46.0482   33.4751 N   0  0  0  0  0  0  0  0  0  0  0  0
    8.6634   45.6561   33.8683 C   0  0  0  0  0  0  0  0  0  0  0  0
    8.2945   46.9742   33.2633 C   0  0  0  0  0  0  0  0  0  0  0  0
    8.7469   48.1545   33.8629 O   0  0  0  0  0  0  0  0  0  0  0  0
    7.6269   47.0080   32.1936 O   0  0  0  0  0  0  0  0  0  0  0  0
    8.6170   49.4375   33.2558 C   0  0  0  0  0  0  0  0  0  0  0  0
    9.5486   49.5511   32.0799 C   0  0  0  0  0  0  0  0  0  0  0  0
   10.9378   49.5062   32.2809 C   0  0  0  0  0  0  0  0  0  0  0  0
    9.0444   49.6676   30.7737 C   0  0  0  0  0  0  0  0  0  0  0  0
   11.8100   49.5828   31.1908 C   0  0  0  0  0  0  0  0  0  0  0  0
    9.9203   49.7451   29.6862 C   0  0  0  0  0  0  0  0  0  0  0  0
   11.3018   49.7030   29.8944 C   0  0  0  0  0  0  0  0  0  0  0  0
    8.8069   40.1904   34.2080 O   0  0  0  0  0  0  0  0  0  0  0  0
   11.2367   40.7895   33.3683 O   0  0  0  0  0  0  0  0  0  0  0  0
   10.9159   40.6889   31.9950 C   0  0  0  0  0  0  0  0  0  0  0  0
   11.5251   39.3872   31.4364 C   0  0  0  0  0  0  0  0  0  0  0  0
   12.7486   39.0879   32.0803 O   0  0  0  0  0  0  0  0  0  0  0  0
   10.6100   38.1909   31.6470 C   0  0  0  0  0  0  0  0  0  0  0  0
   12.9348   37.6808   32.0292 C   0  0  0  0  0  0  0  0  0  0  0  0
    9.6126   38.0874   30.6547 O   0  0  0  0  0  0  0  0  0  0  0  0
   11.5767   37.0133   31.7025 C   0  0  0  0  0  0  0  0  0  0  0  0
   13.4901   37.2165   33.3236 N   0  0  0  0  0  0  0  0  0  0  0  0
   11.6321   36.3231   30.4741 O   0  0  0  0  0  0  0  0  0  0  0  0
   14.4763   36.3266   33.5727 C   0  0  0  0  0  0  0  0  0  0  0  0
   13.1179   37.6307   34.5689 C   0  0  0  0  0  0  0  0  0  0  0  0
   15.2066   35.6135   32.6738 N   0  0  0  0  0  0  0  0  0  0  0  0
   14.6736   36.2272   34.9182 C   0  0  0  0  0  0  0  0  0  0  0  0
   13.8228   37.0453   35.5783 N   0  0  0  0  0  0  0  0  0  0  0  0
   16.1640   34.7592   33.1547 C   0  0  0  0  0  0  0  0  0  0  0  0
   15.6519   35.3491   35.4131 C   0  0  0  0  0  0  0  0  0  0  0  0
   16.3795   34.6309   34.5042 N   0  0  0  0  0  0  0  0  0  0  0  0
   15.9004   35.1933   36.8089 N   0  0  0  0  0  0  0  0  0  0  0  0
    9.8117   44.9952   32.1504 H   0  0  0  0  0  0  0  0  0  0  0  0
   11.9224   45.7039   32.9829 H   0  0  0  0  0  0  0  0  0  0  0  0
   11.2743   46.1198   34.4985 H   0  0  0  0  0  0  0  0  0  0  0  0
    8.7882   45.7788   34.9665 H   0  0  0  0  0  0  0  0  0  0  0  0
    7.8306   44.9386   33.6986 H   0  0  0  0  0  0  0  0  0  0  0  0
    7.5589   49.6127   32.9614 H   0  0  0  0  0  0  0  0  0  0  0  0
    8.8858   50.2134   34.0032 H   0  0  0  0  0  0  0  0  0  0  0  0
   11.3429   49.4062   33.2805 H   0  0  0  0  0  0  0  0  0  0  0  0
    7.9765   49.6942   30.5962 H   0  0  0  0  0  0  0  0  0  0  0  0
   12.8798   49.5466   31.3508 H   0  0  0  0  0  0  0  0  0  0  0  0
    9.5279   49.8350   28.6815 H   0  0  0  0  0  0  0  0  0  0  0  0
   11.9780   49.7615   29.0514 H   0  0  0  0  0  0  0  0  0  0  0  0
    9.8259   40.7205   31.7574 H   0  0  0  0  0  0  0  0  0  0  0  0
   11.3848   41.5506   31.4736 H   0  0  0  0  0  0  0  0  0  0  0  0
   11.7273   39.5286   30.3501 H   0  0  0  0  0  0  0  0  0  0  0  0
   10.1122   38.2731   32.6390 H   0  0  0  0  0  0  0  0  0  0  0  0
   13.6685   37.4591   31.2224 H   0  0  0  0  0  0  0  0  0  0  0  0
   10.0513   38.1110   29.7648 H   0  0  0  0  0  0  0  0  0  0  0  0
   11.2801   36.3128   32.5195 H   0  0  0  0  0  0  0  0  0  0  0  0
   10.8625   35.6960   30.4645 H   0  0  0  0  0  0  0  0  0  0  0  0
   12.3356   38.3581   34.7444 H   0  0  0  0  0  0  0  0  0  0  0  0
   16.7575   34.1787   32.4619 H   0  0  0  0  0  0  0  0  0  0  0  0
   16.6364   34.5315   37.1415 H   0  0  0  0  0  0  0  0  0  0  0  0
   15.3531   35.7355   37.5137 H   0  0  0  0  0  0  0  0  0  0  0  0
  1  2  2  0
  1  3  1  0
  3  4  1  0
  4  5  1  0
  6  1  1  0
  7  6  1  0
  6  8  1  0
  8  9  1  0
  9 10  1  0
  9 11  2  0
 10 12  1  0
 12 13  1  0
 13 14  2  0
 15 13  1  0
 14 16  1  0
 17 15  2  0
 16 18  2  0
 18 17  1  0
  4 19  2  0
  4 20  1  0
 21 20  1  0
 21 22  1  0
 22 23  1  0
 22 24  1  0
 23 25  1  0
 24 26  1  0
 24 27  1  0
 27 25  1  0
 25 28  1  0
 27 29  1  0
 30 28  1  0
 31 28  1  0
 32 30  2  0
 30 33  1  0
 34 31  2  0
 35 32  1  0
 33 36  2  0
 33 34  1  0
 37 35  2  0
 37 36  1  0
 36 38  1  0
  6 39  1  6
  7 40  1  0
  7 41  1  0
  8 42  1  0
  8 43  1  0
 12 44  1  0
 12 45  1  0
 14 46  1  0
 15 47  1  0
 16 48  1  0
 17 49  1  0
 18 50  1  0
 21 51  1  0
 21 52  1  0
 22 53  1  0
 24 54  1  0
 25 55  1  0
 26 56  1  0
 27 57  1  0
 29 58  1  0
 31 59  1  0
 35 60  1  0
 38 61  1  0
 38 62  1  0
M  CHG  1   5  -1
M  END
>  <EmbedRMS>  (30) 
0.08864741299781116

$$$$

     RDKit          3D

 62 65  0  0  0  0  0  0  0  0999 V2000
   10.2862   43.7710   33.8098 C   0  0  0  0  0  0  0  0  0  0  0  0
   11.4100   43.5818   34.3615 O   0  0  0  0  0  0  0  0  0  0  0  0
    9.3666   42.7310   33.7021 O   0  0  0  0  0  0  0  0  0  0  0  0
    9.8843   41.2332   34.2846 P   0  0  0  0  0  5  0  0  0  0  0  0
   10.3652   41.4679   35.8751 O   0  0  0  0  0  1  0  0  0  0  0  0
    9.9606   45.1126   33.2474 C   0  0  2  0  0  0  0  0  0  0  0  0
   11.0656   46.0480   33.4748 N   0  0  0  0  0  0  0  0  0  0  0  0
    8.6647   45.6566   33.8718 C   0  0  0  0  0  0  0  0  0  0  0  0
    8.2800   46.9670   33.2581 C   0  0  0  0  0  0  0  0  0  0  0  0
    8.7571   48.1543   33.8198 O   0  0  0  0  0  0  0  0  0  0  0  0
    7.5662   46.9873   32.2182 O   0  0  0  0  0  0  0  0  0  0  0  0
    8.4724   49.4344   33.2676 C   0  0  0  0  0  0  0  0  0  0  0  0
    9.1520   50.4886   34.0908 C   0  0  0  0  0  0  0  0  0  0  0  0
    8.4803   51.0914   35.1672 C   0  0  0  0  0  0  0  0  0  0  0  0
   10.4899   50.8309   33.8345 C   0  0  0  0  0  0  0  0  0  0  0  0
    9.1303   52.0454   35.9567 C   0  0  0  0  0  0  0  0  0  0  0  0
   11.1364   51.7853   34.6264 C   0  0  0  0  0  0  0  0  0  0  0  0
   10.4564   52.3939   35.6851 C   0  0  0  0  0  0  0  0  0  0  0  0
    8.8068   40.1904   34.2083 O   0  0  0  0  0  0  0  0  0  0  0  0
   11.2364   40.7902   33.3689 O   0  0  0  0  0  0  0  0  0  0  0  0
   10.9152   40.6897   31.9959 C   0  0  0  0  0  0  0  0  0  0  0  0
   11.5269   39.3898   31.4373 C   0  0  0  0  0  0  0  0  0  0  0  0
   12.7507   39.0916   32.0839 O   0  0  0  0  0  0  0  0  0  0  0  0
   10.6121   38.1915   31.6451 C   0  0  0  0  0  0  0  0  0  0  0  0
   12.9429   37.6853   32.0295 C   0  0  0  0  0  0  0  0  0  0  0  0
    9.6069   38.0857   30.6602 O   0  0  0  0  0  0  0  0  0  0  0  0
   11.5845   37.0186   31.6879 C   0  0  0  0  0  0  0  0  0  0  0  0
   13.4899   37.2163   33.3250 N   0  0  0  0  0  0  0  0  0  0  0  0
   11.6202   36.3062   30.4693 O   0  0  0  0  0  0  0  0  0  0  0  0
   14.4759   36.3263   33.5738 C   0  0  0  0  0  0  0  0  0  0  0  0
   13.1176   37.6307   34.5699 C   0  0  0  0  0  0  0  0  0  0  0  0
   15.2065   35.6139   32.6746 N   0  0  0  0  0  0  0  0  0  0  0  0
   14.6731   36.2267   34.9191 C   0  0  0  0  0  0  0  0  0  0  0  0
   13.8224   37.0450   35.5792 N   0  0  0  0  0  0  0  0  0  0  0  0
   16.1640   34.7596   33.1551 C   0  0  0  0  0  0  0  0  0  0  0  0
   15.6517   35.3489   35.4136 C   0  0  0  0  0  0  0  0  0  0  0  0
   16.3795   34.6310   34.5046 N   0  0  0  0  0  0  0  0  0  0  0  0
   15.9006   35.1931   36.8094 N   0  0  0  0  0  0  0  0  0  0  0  0
    9.8093   44.9958   32.1512 H   0  0  0  0  0  0  0  0  0  0  0  0
   11.9222   45.7018   32.9835 H   0  0  0  0  0  0  0  0  0  0  0  0
   11.2746   46.1197   34.4983 H   0  0  0  0  0  0  0  0  0  0  0  0
    8.7965   45.7908   34.9679 H   0  0  0  0  0  0  0  0  0  0  0  0
    7.8350   44.9322   33.7168 H   0  0  0  0  0  0  0  0  0  0  0  0
    8.8368   49.4795   32.2177 H   0  0  0  0  0  0  0  0  0  0  0  0
    7.3730   49.6021   33.2571 H   0  0  0  0  0  0  0  0  0  0  0  0
    7.4561   50.8229   35.3949 H   0  0  0  0  0  0  0  0  0  0  0  0
   11.0311   50.3588   33.0237 H   0  0  0  0  0  0  0  0  0  0  0  0
    8.6072   52.5116   36.7817 H   0  0  0  0  0  0  0  0  0  0  0  0
   12.1657   52.0500   34.4220 H   0  0  0  0  0  0  0  0  0  0  0  0
   10.9585   53.1312   36.2980 H   0  0  0  0  0  0  0  0  0  0  0  0
    9.8252   40.7190   31.7585 H   0  0  0  0  0  0  0  0  0  0  0  0
   11.3823   41.5526   31.4747 H   0  0  0  0  0  0  0  0  0  0  0  0
   11.7318   39.5338   30.3520 H   0  0  0  0  0  0  0  0  0  0  0  0
   10.1214   38.2681   32.6412 H   0  0  0  0  0  0  0  0  0  0  0  0
   13.6882   37.4708   31.2319 H   0  0  0  0  0  0  0  0  0  0  0  0
   10.0256   38.1750   29.7656 H   0  0  0  0  0  0  0  0  0  0  0  0
   11.2796   36.3123   32.4915 H   0  0  0  0  0  0  0  0  0  0  0  0
   11.9872   36.9099   29.7714 H   0  0  0  0  0  0  0  0  0  0  0  0
   12.3365   38.3595   34.7453 H   0  0  0  0  0  0  0  0  0  0  0  0
   16.7576   34.1794   32.4622 H   0  0  0  0  0  0  0  0  0  0  0  0
   16.6368   34.5316   37.1418 H   0  0  0  0  0  0  0  0  0  0  0  0
   15.3532   35.7351   37.5143 H   0  0  0  0  0  0  0  0  0  0  0  0
  1  2  2  0
  1  3  1  0
  3  4  1  0
  4  5  1  0
  6  1  1  0
  7  6  1  0
  6  8  1  0
  8  9  1  0
  9 10  1  0
  9 11  2  0
 10 12  1  0
 12 13  1  0
 13 14  2  0
 15 13  1  0
 14 16  1  0
 17 15  2  0
 16 18  2  0
 18 17  1  0
  4 19  2  0
  4 20  1  0
 21 20  1  0
 21 22  1  0
 22 23  1  0
 22 24  1  0
 23 25  1  0
 24 26  1  0
 24 27  1  0
 27 25  1  0
 25 28  1  0
 27 29  1  0
 30 28  1  0
 31 28  1  0
 32 30  2  0
 30 33  1  0
 34 31  2  0
 35 32  1  0
 33 36  2  0
 33 34  1  0
 37 35  2  0
 37 36  1  0
 36 38  1  0
  6 39  1  6
  7 40  1  0
  7 41  1  0
  8 42  1  0
  8 43  1  0
 12 44  1  0
 12 45  1  0
 14 46  1  0
 15 47  1  0
 16 48  1  0
 17 49  1  0
 18 50  1  0
 21 51  1  0
 21 52  1  0
 22 53  1  0
 24 54  1  0
 25 55  1  0
 26 56  1  0
 27 57  1  0
 29 58  1  0
 31 59  1  0
 35 60  1  0
 38 61  1  0
 38 62  1  0
M  CHG  1   5  -1
M  END
>  <EmbedRMS>  (31) 
0.0875205568528422

$$$$

     RDKit          3D

 62 65  0  0  0  0  0  0  0  0999 V2000
   10.2873   43.7714   33.8025 C   0  0  0  0  0  0  0  0  0  0  0  0
   11.4091   43.5882   34.3604 O   0  0  0  0  0  0  0  0  0  0  0  0
    9.3682   42.7306   33.6987 O   0  0  0  0  0  0  0  0  0  0  0  0
    9.8856   41.2338   34.2838 P   0  0  0  0  0  5  0  0  0  0  0  0
   10.3667   41.4689   35.8735 O   0  0  0  0  0  1  0  0  0  0  0  0
    9.9540   45.1146   33.2512 C   0  0  2  0  0  0  0  0  0  0  0  0
   11.0692   46.0350   33.4803 N   0  0  0  0  0  0  0  0  0  0  0  0
    8.6562   45.6645   33.8784 C   0  0  0  0  0  0  0  0  0  0  0  0
    8.7830   45.8832   35.3576 C   0  0  0  0  0  0  0  0  0  0  0  0
    8.7808   44.7802   36.2155 O   0  0  0  0  0  0  0  0  0  0  0  0
    8.9163   47.0523   35.8118 O   0  0  0  0  0  0  0  0  0  0  0  0
    8.8948   44.8986   37.6286 C   0  0  0  0  0  0  0  0  0  0  0  0
    8.9642   43.5261   38.2314 C   0  0  0  0  0  0  0  0  0  0  0  0
    7.8257   42.7040   38.2341 C   0  0  0  0  0  0  0  0  0  0  0  0
   10.1740   43.0298   38.7460 C   0  0  0  0  0  0  0  0  0  0  0  0
    7.8936   41.4086   38.7565 C   0  0  0  0  0  0  0  0  0  0  0  0
   10.2369   41.7344   39.2695 C   0  0  0  0  0  0  0  0  0  0  0  0
    9.0978   40.9246   39.2748 C   0  0  0  0  0  0  0  0  0  0  0  0
    8.8078   40.1913   34.2086 O   0  0  0  0  0  0  0  0  0  0  0  0
   11.2382   40.7893   33.3689 O   0  0  0  0  0  0  0  0  0  0  0  0
   10.9194   40.6893   31.9950 C   0  0  0  0  0  0  0  0  0  0  0  0
   11.5171   39.3801   31.4397 C   0  0  0  0  0  0  0  0  0  0  0  0
   12.7479   39.0861   32.0733 O   0  0  0  0  0  0  0  0  0  0  0  0
   10.6031   38.1891   31.6667 C   0  0  0  0  0  0  0  0  0  0  0  0
   12.9335   37.6796   32.0280 C   0  0  0  0  0  0  0  0  0  0  0  0
    9.6396   38.0777   30.6457 O   0  0  0  0  0  0  0  0  0  0  0  0
   11.5739   37.0154   31.7058 C   0  0  0  0  0  0  0  0  0  0  0  0
   13.4903   37.2178   33.3231 N   0  0  0  0  0  0  0  0  0  0  0  0
   11.6211   36.3376   30.4695 O   0  0  0  0  0  0  0  0  0  0  0  0
   14.4761   36.3273   33.5725 C   0  0  0  0  0  0  0  0  0  0  0  0
   13.1178   37.6317   34.5685 C   0  0  0  0  0  0  0  0  0  0  0  0
   15.2063   35.6139   32.6738 N   0  0  0  0  0  0  0  0  0  0  0  0
   14.6733   36.2278   34.9180 C   0  0  0  0  0  0  0  0  0  0  0  0
   13.8225   37.0459   35.5780 N   0  0  0  0  0  0  0  0  0  0  0  0
   16.1636   34.7595   33.1546 C   0  0  0  0  0  0  0  0  0  0  0  0
   15.6515   35.3494   35.4129 C   0  0  0  0  0  0  0  0  0  0  0  0
   16.3790   34.6311   34.5041 N   0  0  0  0  0  0  0  0  0  0  0  0
   15.9001   35.1936   36.8088 N   0  0  0  0  0  0  0  0  0  0  0  0
    9.7906   45.0045   32.1555 H   0  0  0  0  0  0  0  0  0  0  0  0
   10.8071   46.9734   33.0994 H   0  0  0  0  0  0  0  0  0  0  0  0
   11.8836   45.7170   32.9047 H   0  0  0  0  0  0  0  0  0  0  0  0
    7.8189   44.9581   33.6901 H   0  0  0  0  0  0  0  0  0  0  0  0
    8.3863   46.6226   33.3827 H   0  0  0  0  0  0  0  0  0  0  0  0
    9.8044   45.4859   37.8833 H   0  0  0  0  0  0  0  0  0  0  0  0
    8.0096   45.4379   38.0303 H   0  0  0  0  0  0  0  0  0  0  0  0
    6.8892   43.0650   37.8269 H   0  0  0  0  0  0  0  0  0  0  0  0
   11.0680   43.6408   38.7375 H   0  0  0  0  0  0  0  0  0  0  0  0
    7.0134   40.7788   38.7562 H   0  0  0  0  0  0  0  0  0  0  0  0
   11.1705   41.3563   39.6656 H   0  0  0  0  0  0  0  0  0  0  0  0
    9.1493   39.9212   39.6771 H   0  0  0  0  0  0  0  0  0  0  0  0
   11.4013   41.5437   31.4735 H   0  0  0  0  0  0  0  0  0  0  0  0
    9.8316   40.7396   31.7548 H   0  0  0  0  0  0  0  0  0  0  0  0
   11.6981   39.5043   30.3471 H   0  0  0  0  0  0  0  0  0  0  0  0
   10.1090   38.2631   32.6650 H   0  0  0  0  0  0  0  0  0  0  0  0
   13.6656   37.4540   31.2208 H   0  0  0  0  0  0  0  0  0  0  0  0
    8.8964   38.6899   30.8853 H   0  0  0  0  0  0  0  0  0  0  0  0
   11.2846   36.3060   32.5175 H   0  0  0  0  0  0  0  0  0  0  0  0
   10.8523   35.7094   30.4590 H   0  0  0  0  0  0  0  0  0  0  0  0
   12.3352   38.3589   34.7440 H   0  0  0  0  0  0  0  0  0  0  0  0
   16.7569   34.1788   32.4619 H   0  0  0  0  0  0  0  0  0  0  0  0
   16.6359   34.5317   37.1414 H   0  0  0  0  0  0  0  0  0  0  0  0
   15.3529   35.7359   37.5137 H   0  0  0  0  0  0  0  0  0  0  0  0
  1  2  2  0
  1  3  1  0
  3  4  1  0
  4  5  1  0
  6  1  1  0
  7  6  1  0
  6  8  1  0
  8  9  1  0
  9 10  1  0
  9 11  2  0
 10 12  1  0
 12 13  1  0
 13 14  2  0
 15 13  1  0
 14 16  1  0
 17 15  2  0
 16 18  2  0
 18 17  1  0
  4 19  2  0
  4 20  1  0
 21 20  1  0
 21 22  1  0
 22 23  1  0
 22 24  1  0
 23 25  1  0
 24 26  1  0
 24 27  1  0
 27 25  1  0
 25 28  1  0
 27 29  1  0
 30 28  1  0
 31 28  1  0
 32 30  2  0
 30 33  1  0
 34 31  2  0
 35 32  1  0
 33 36  2  0
 33 34  1  0
 37 35  2  0
 37 36  1  0
 36 38  1  0
  6 39  1  6
  7 40  1  0
  7 41  1  0
  8 42  1  0
  8 43  1  0
 12 44  1  0
 12 45  1  0
 14 46  1  0
 15 47  1  0
 16 48  1  0
 17 49  1  0
 18 50  1  0
 21 51  1  0
 21 52  1  0
 22 53  1  0
 24 54  1  0
 25 55  1  0
 26 56  1  0
 27 57  1  0
 29 58  1  0
 31 59  1  0
 35 60  1  0
 38 61  1  0
 38 62  1  0
M  CHG  1   5  -1
M  END
>  <EmbedRMS>  (32) 
0.08947733837734216

$$$$

     RDKit          3D

 62 65  0  0  0  0  0  0  0  0999 V2000
   10.2844   43.7742   33.8067 C   0  0  0  0  0  0  0  0  0  0  0  0
   11.4068   43.5903   34.3636 O   0  0  0  0  0  0  0  0  0  0  0  0
    9.3681   42.7309   33.6986 O   0  0  0  0  0  0  0  0  0  0  0  0
    9.8860   41.2341   34.2835 P   0  0  0  0  0  5  0  0  0  0  0  0
   10.3662   41.4697   35.8741 O   0  0  0  0  0  1  0  0  0  0  0  0
    9.9491   45.1165   33.2547 C   0  0  2  0  0  0  0  0  0  0  0  0
   11.0754   46.0281   33.4734 N   0  0  0  0  0  0  0  0  0  0  0  0
    8.6778   45.6531   33.9422 C   0  0  0  0  0  0  0  0  0  0  0  0
    8.1804   46.9040   33.2861 C   0  0  0  0  0  0  0  0  0  0  0  0
    8.4997   48.1457   33.8420 O   0  0  0  0  0  0  0  0  0  0  0  0
    7.5079   46.8286   32.2215 O   0  0  0  0  0  0  0  0  0  0  0  0
    8.1020   49.3773   33.2505 C   0  0  0  0  0  0  0  0  0  0  0  0
    8.6293   50.5137   34.0759 C   0  0  0  0  0  0  0  0  0  0  0  0
    9.9333   50.9923   33.8670 C   0  0  0  0  0  0  0  0  0  0  0  0
    7.8511   51.0620   35.1088 C   0  0  0  0  0  0  0  0  0  0  0  0
   10.4396   52.0256   34.6618 C   0  0  0  0  0  0  0  0  0  0  0  0
    8.3611   52.0953   35.9014 C   0  0  0  0  0  0  0  0  0  0  0  0
    9.6532   52.5784   35.6765 C   0  0  0  0  0  0  0  0  0  0  0  0
    8.8083   40.1914   34.2081 O   0  0  0  0  0  0  0  0  0  0  0  0
   11.2377   40.7897   33.3680 O   0  0  0  0  0  0  0  0  0  0  0  0
   10.9164   40.6889   31.9948 C   0  0  0  0  0  0  0  0  0  0  0  0
   11.5254   39.3871   31.4363 C   0  0  0  0  0  0  0  0  0  0  0  0
   12.7488   39.0878   32.0801 O   0  0  0  0  0  0  0  0  0  0  0  0
   10.6101   38.1909   31.6470 C   0  0  0  0  0  0  0  0  0  0  0  0
   12.9348   37.6806   32.0292 C   0  0  0  0  0  0  0  0  0  0  0  0
    9.6126   38.0874   30.6547 O   0  0  0  0  0  0  0  0  0  0  0  0
   11.5767   37.0132   31.7025 C   0  0  0  0  0  0  0  0  0  0  0  0
   13.4902   37.2164   33.3236 N   0  0  0  0  0  0  0  0  0  0  0  0
   11.6321   36.3230   30.4741 O   0  0  0  0  0  0  0  0  0  0  0  0
   14.4763   36.3266   33.5727 C   0  0  0  0  0  0  0  0  0  0  0  0
   13.1179   37.6307   34.5689 C   0  0  0  0  0  0  0  0  0  0  0  0
   15.2066   35.6135   32.6738 N   0  0  0  0  0  0  0  0  0  0  0  0
   14.6736   36.2272   34.9182 C   0  0  0  0  0  0  0  0  0  0  0  0
   13.8228   37.0453   35.5783 N   0  0  0  0  0  0  0  0  0  0  0  0
   16.1640   34.7592   33.1547 C   0  0  0  0  0  0  0  0  0  0  0  0
   15.6519   35.3491   35.4131 C   0  0  0  0  0  0  0  0  0  0  0  0
   16.3795   34.6309   34.5042 N   0  0  0  0  0  0  0  0  0  0  0  0
   15.9004   35.1933   36.8089 N   0  0  0  0  0  0  0  0  0  0  0  0
    9.7635   45.0051   32.1622 H   0  0  0  0  0  0  0  0  0  0  0  0
   10.8471   46.9549   33.0470 H   0  0  0  0  0  0  0  0  0  0  0  0
   11.8961   45.6762   32.9271 H   0  0  0  0  0  0  0  0  0  0  0  0
    8.8858   45.8565   35.0157 H   0  0  0  0  0  0  0  0  0  0  0  0
    7.8671   44.8930   33.8946 H   0  0  0  0  0  0  0  0  0  0  0  0
    8.5031   49.4428   32.2152 H   0  0  0  0  0  0  0  0  0  0  0  0
    6.9924   49.4243   33.1926 H   0  0  0  0  0  0  0  0  0  0  0  0
   10.5564   50.5650   33.0908 H   0  0  0  0  0  0  0  0  0  0  0  0
    6.8522   50.6900   35.3003 H   0  0  0  0  0  0  0  0  0  0  0  0
   11.4430   52.3949   34.4938 H   0  0  0  0  0  0  0  0  0  0  0  0
    7.7559   52.5188   36.6926 H   0  0  0  0  0  0  0  0  0  0  0  0
   10.0470   53.3771   36.2918 H   0  0  0  0  0  0  0  0  0  0  0  0
   11.3853   41.5504   31.4731 H   0  0  0  0  0  0  0  0  0  0  0  0
    9.8264   40.7205   31.7574 H   0  0  0  0  0  0  0  0  0  0  0  0
   11.7275   39.5284   30.3500 H   0  0  0  0  0  0  0  0  0  0  0  0
   10.1124   38.2732   32.6390 H   0  0  0  0  0  0  0  0  0  0  0  0
   13.6686   37.4589   31.2224 H   0  0  0  0  0  0  0  0  0  0  0  0
   10.0513   38.1109   29.7648 H   0  0  0  0  0  0  0  0  0  0  0  0
   11.2801   36.3128   32.5195 H   0  0  0  0  0  0  0  0  0  0  0  0
   10.8624   35.6960   30.4645 H   0  0  0  0  0  0  0  0  0  0  0  0
   12.3356   38.3580   34.7444 H   0  0  0  0  0  0  0  0  0  0  0  0
   16.7575   34.1787   32.4620 H   0  0  0  0  0  0  0  0  0  0  0  0
   16.6364   34.5315   37.1415 H   0  0  0  0  0  0  0  0  0  0  0  0
   15.3531   35.7356   37.5138 H   0  0  0  0  0  0  0  0  0  0  0  0
  1  2  2  0
  1  3  1  0
  3  4  1  0
  4  5  1  0
  6  1  1  0
  7  6  1  0
  6  8  1  0
  8  9  1  0
  9 10  1  0
  9 11  2  0
 10 12  1  0
 12 13  1  0
 13 14  2  0
 15 13  1  0
 14 16  1  0
 17 15  2  0
 16 18  2  0
 18 17  1  0
  4 19  2  0
  4 20  1  0
 21 20  1  0
 21 22  1  0
 22 23  1  0
 22 24  1  0
 23 25  1  0
 24 26  1  0
 24 27  1  0
 27 25  1  0
 25 28  1  0
 27 29  1  0
 30 28  1  0
 31 28  1  0
 32 30  2  0
 30 33  1  0
 34 31  2  0
 35 32  1  0
 33 36  2  0
 33 34  1  0
 37 35  2  0
 37 36  1  0
 36 38  1  0
  6 39  1  6
  7 40  1  0
  7 41  1  0
  8 42  1  0
  8 43  1  0
 12 44  1  0
 12 45  1  0
 14 46  1  0
 15 47  1  0
 16 48  1  0
 17 49  1  0
 18 50  1  0
 21 51  1  0
 21 52  1  0
 22 53  1  0
 24 54  1  0
 25 55  1  0
 26 56  1  0
 27 57  1  0
 29 58  1  0
 31 59  1  0
 35 60  1  0
 38 61  1  0
 38 62  1  0
M  CHG  1   5  -1
M  END
>  <EmbedRMS>  (33) 
0.08823166500821407

$$$$

     RDKit          3D

 62 65  0  0  0  0  0  0  0  0999 V2000
   10.2889   43.7680   33.8061 C   0  0  0  0  0  0  0  0  0  0  0  0
   11.4125   43.5787   34.3578 O   0  0  0  0  0  0  0  0  0  0  0  0
    9.3670   42.7302   33.7008 O   0  0  0  0  0  0  0  0  0  0  0  0
    9.8836   41.2331   34.2852 P   0  0  0  0  0  5  0  0  0  0  0  0
   10.3640   41.4693   35.8757 O   0  0  0  0  0  1  0  0  0  0  0  0
    9.9623   45.1126   33.2499 C   0  0  2  0  0  0  0  0  0  0  0  0
   11.0617   46.0541   33.4772 N   0  0  0  0  0  0  0  0  0  0  0  0
    8.6453   45.6678   33.8259 C   0  0  0  0  0  0  0  0  0  0  0  0
    8.6750   45.7967   35.3204 C   0  0  0  0  0  0  0  0  0  0  0  0
    8.4342   44.6674   36.1113 O   0  0  0  0  0  0  0  0  0  0  0  0
    8.9507   46.9082   35.8491 O   0  0  0  0  0  0  0  0  0  0  0  0
    8.4541   44.6893   37.5363 C   0  0  0  0  0  0  0  0  0  0  0  0
    7.2384   45.3985   38.0665 C   0  0  0  0  0  0  0  0  0  0  0  0
    7.3565   46.6451   38.7037 C   0  0  0  0  0  0  0  0  0  0  0  0
    5.9664   44.8267   37.9014 C   0  0  0  0  0  0  0  0  0  0  0  0
    6.2171   47.3044   39.1759 C   0  0  0  0  0  0  0  0  0  0  0  0
    4.8297   45.4892   38.3752 C   0  0  0  0  0  0  0  0  0  0  0  0
    4.9549   46.7267   39.0126 C   0  0  0  0  0  0  0  0  0  0  0  0
    8.8060   40.1905   34.2090 O   0  0  0  0  0  0  0  0  0  0  0  0
   11.2358   40.7893   33.3698 O   0  0  0  0  0  0  0  0  0  0  0  0
   10.9152   40.6896   31.9966 C   0  0  0  0  0  0  0  0  0  0  0  0
   11.5268   39.3899   31.4376 C   0  0  0  0  0  0  0  0  0  0  0  0
   12.7507   39.0917   32.0839 O   0  0  0  0  0  0  0  0  0  0  0  0
   10.6121   38.1915   31.6452 C   0  0  0  0  0  0  0  0  0  0  0  0
   12.9429   37.6853   32.0295 C   0  0  0  0  0  0  0  0  0  0  0  0
    9.6070   38.0858   30.6602 O   0  0  0  0  0  0  0  0  0  0  0  0
   11.5845   37.0186   31.6879 C   0  0  0  0  0  0  0  0  0  0  0  0
   13.4899   37.2163   33.3250 N   0  0  0  0  0  0  0  0  0  0  0  0
   11.6202   36.3063   30.4692 O   0  0  0  0  0  0  0  0  0  0  0  0
   14.4759   36.3263   33.5738 C   0  0  0  0  0  0  0  0  0  0  0  0
   13.1176   37.6308   34.5699 C   0  0  0  0  0  0  0  0  0  0  0  0
   15.2065   35.6139   32.6746 N   0  0  0  0  0  0  0  0  0  0  0  0
   14.6731   36.2267   34.9191 C   0  0  0  0  0  0  0  0  0  0  0  0
   13.8224   37.0450   35.5792 N   0  0  0  0  0  0  0  0  0  0  0  0
   16.1640   34.7596   33.1551 C   0  0  0  0  0  0  0  0  0  0  0  0
   15.6517   35.3489   35.4136 C   0  0  0  0  0  0  0  0  0  0  0  0
   16.3795   34.6310   34.5046 N   0  0  0  0  0  0  0  0  0  0  0  0
   15.9006   35.1931   36.8094 N   0  0  0  0  0  0  0  0  0  0  0  0
    9.8251   44.9970   32.1523 H   0  0  0  0  0  0  0  0  0  0  0  0
   11.3004   46.1007   34.4951 H   0  0  0  0  0  0  0  0  0  0  0  0
   11.9096   45.7247   32.9596 H   0  0  0  0  0  0  0  0  0  0  0  0
    7.8043   44.9988   33.5414 H   0  0  0  0  0  0  0  0  0  0  0  0
    8.4380   46.6616   33.3719 H   0  0  0  0  0  0  0  0  0  0  0  0
    9.3948   45.1617   37.8953 H   0  0  0  0  0  0  0  0  0  0  0  0
    8.4502   43.6423   37.9065 H   0  0  0  0  0  0  0  0  0  0  0  0
    8.3273   47.1073   38.8330 H   0  0  0  0  0  0  0  0  0  0  0  0
    5.8569   43.8704   37.4048 H   0  0  0  0  0  0  0  0  0  0  0  0
    6.3126   48.2641   39.6671 H   0  0  0  0  0  0  0  0  0  0  0  0
    3.8516   45.0439   38.2466 H   0  0  0  0  0  0  0  0  0  0  0  0
    4.0742   47.2386   39.3781 H   0  0  0  0  0  0  0  0  0  0  0  0
   11.3826   41.5527   31.4760 H   0  0  0  0  0  0  0  0  0  0  0  0
    9.8252   40.7191   31.7589 H   0  0  0  0  0  0  0  0  0  0  0  0
   11.7316   39.5341   30.3522 H   0  0  0  0  0  0  0  0  0  0  0  0
   10.1213   38.2680   32.6413 H   0  0  0  0  0  0  0  0  0  0  0  0
   13.6882   37.4709   31.2319 H   0  0  0  0  0  0  0  0  0  0  0  0
   10.0257   38.1751   29.7656 H   0  0  0  0  0  0  0  0  0  0  0  0
   11.2796   36.3123   32.4915 H   0  0  0  0  0  0  0  0  0  0  0  0
   11.9872   36.9100   29.7714 H   0  0  0  0  0  0  0  0  0  0  0  0
   12.3365   38.3596   34.7453 H   0  0  0  0  0  0  0  0  0  0  0  0
   16.7576   34.1794   32.4622 H   0  0  0  0  0  0  0  0  0  0  0  0
   15.3532   35.7351   37.5143 H   0  0  0  0  0  0  0  0  0  0  0  0
   16.6368   34.5316   37.1418 H   0  0  0  0  0  0  0  0  0  0  0  0
  1  2  2  0
  1  3  1  0
  3  4  1  0
  4  5  1  0
  6  1  1  0
  7  6  1  0
  6  8  1  0
  8  9  1  0
  9 10  1  0
  9 11  2  0
 10 12  1  0
 12 13  1  0
 13 14  2  0
 15 13  1  0
 14 16  1  0
 17 15  2  0
 16 18  2  0
 18 17  1  0
  4 19  2  0
  4 20  1  0
 21 20  1  0
 21 22  1  0
 22 23  1  0
 22 24  1  0
 23 25  1  0
 24 26  1  0
 24 27  1  0
 27 25  1  0
 25 28  1  0
 27 29  1  0
 30 28  1  0
 31 28  1  0
 32 30  2  0
 30 33  1  0
 34 31  2  0
 35 32  1  0
 33 36  2  0
 33 34  1  0
 37 35  2  0
 37 36  1  0
 36 38  1  0
  6 39  1  6
  7 40  1  0
  7 41  1  0
  8 42  1  0
  8 43  1  0
 12 44  1  0
 12 45  1  0
 14 46  1  0
 15 47  1  0
 16 48  1  0
 17 49  1  0
 18 50  1  0
 21 51  1  0
 21 52  1  0
 22 53  1  0
 24 54  1  0
 25 55  1  0
 26 56  1  0
 27 57  1  0
 29 58  1  0
 31 59  1  0
 35 60  1  0
 38 61  1  0
 38 62  1  0
M  CHG  1   5  -1
M  END
>  <EmbedRMS>  (34) 
0.08766427463589466

$$$$

     RDKit          3D

 62 65  0  0  0  0  0  0  0  0999 V2000
   10.2863   43.7710   33.8104 C   0  0  0  0  0  0  0  0  0  0  0  0
   11.4100   43.5819   34.3623 O   0  0  0  0  0  0  0  0  0  0  0  0
    9.3669   42.7308   33.7024 O   0  0  0  0  0  0  0  0  0  0  0  0
    9.8847   41.2329   34.2847 P   0  0  0  0  0  5  0  0  0  0  0  0
   10.3648   41.4676   35.8754 O   0  0  0  0  0  1  0  0  0  0  0  0
    9.9621   45.1112   33.2444 C   0  0  2  0  0  0  0  0  0  0  0  0
   11.0643   46.0487   33.4758 N   0  0  0  0  0  0  0  0  0  0  0  0
    8.6623   45.6560   33.8596 C   0  0  0  0  0  0  0  0  0  0  0  0
    8.2670   46.9505   33.2197 C   0  0  0  0  0  0  0  0  0  0  0  0
    7.7116   46.9391   31.9374 O   0  0  0  0  0  0  0  0  0  0  0  0
    8.4668   48.0385   33.8258 O   0  0  0  0  0  0  0  0  0  0  0  0
    7.3392   48.1281   31.2502 C   0  0  0  0  0  0  0  0  0  0  0  0
    6.8059   47.7675   29.8950 C   0  0  0  0  0  0  0  0  0  0  0  0
    5.4380   47.5003   29.7196 C   0  0  0  0  0  0  0  0  0  0  0  0
    7.6812   47.6247   28.8056 C   0  0  0  0  0  0  0  0  0  0  0  0
    4.9497   47.1246   28.4640 C   0  0  0  0  0  0  0  0  0  0  0  0
    7.1888   47.2489   27.5517 C   0  0  0  0  0  0  0  0  0  0  0  0
    5.8239   47.0014   27.3804 C   0  0  0  0  0  0  0  0  0  0  0  0
    8.8073   40.1901   34.2076 O   0  0  0  0  0  0  0  0  0  0  0  0
   11.2377   40.7903   33.3697 O   0  0  0  0  0  0  0  0  0  0  0  0
   10.9187   40.6906   31.9961 C   0  0  0  0  0  0  0  0  0  0  0  0
   11.5174   39.3824   31.4412 C   0  0  0  0  0  0  0  0  0  0  0  0
   12.7494   39.0893   32.0756 O   0  0  0  0  0  0  0  0  0  0  0  0
   10.6036   38.1900   31.6659 C   0  0  0  0  0  0  0  0  0  0  0  0
   12.9400   37.6834   32.0276 C   0  0  0  0  0  0  0  0  0  0  0  0
    9.6376   38.0786   30.6474 O   0  0  0  0  0  0  0  0  0  0  0  0
   11.5803   37.0204   31.6937 C   0  0  0  0  0  0  0  0  0  0  0  0
   13.4902   37.2177   33.3237 N   0  0  0  0  0  0  0  0  0  0  0  0
   11.6117   36.3194   30.4680 O   0  0  0  0  0  0  0  0  0  0  0  0
   14.4758   36.3271   33.5731 C   0  0  0  0  0  0  0  0  0  0  0  0
   13.1176   37.6318   34.5688 C   0  0  0  0  0  0  0  0  0  0  0  0
   15.2063   35.6141   32.6741 N   0  0  0  0  0  0  0  0  0  0  0  0
   14.6729   36.2274   34.9184 C   0  0  0  0  0  0  0  0  0  0  0  0
   13.8222   37.0458   35.5783 N   0  0  0  0  0  0  0  0  0  0  0  0
   16.1636   34.7596   33.1548 C   0  0  0  0  0  0  0  0  0  0  0  0
   15.6514   35.3493   35.4132 C   0  0  0  0  0  0  0  0  0  0  0  0
   16.3791   34.6311   34.5043 N   0  0  0  0  0  0  0  0  0  0  0  0
   15.9002   35.1934   36.8090 N   0  0  0  0  0  0  0  0  0  0  0  0
    9.8182   44.9909   32.1475 H   0  0  0  0  0  0  0  0  0  0  0  0
   11.2700   46.1195   34.5000 H   0  0  0  0  0  0  0  0  0  0  0  0
   11.9232   45.7040   32.9871 H   0  0  0  0  0  0  0  0  0  0  0  0
    8.7878   45.7978   34.9561 H   0  0  0  0  0  0  0  0  0  0  0  0
    7.8365   44.9282   33.7040 H   0  0  0  0  0  0  0  0  0  0  0  0
    8.2239   48.7943   31.1463 H   0  0  0  0  0  0  0  0  0  0  0  0
    6.5660   48.6727   31.8352 H   0  0  0  0  0  0  0  0  0  0  0  0
    4.7516   47.5819   30.5533 H   0  0  0  0  0  0  0  0  0  0  0  0
    8.7425   47.8030   28.9277 H   0  0  0  0  0  0  0  0  0  0  0  0
    3.8942   46.9249   28.3320 H   0  0  0  0  0  0  0  0  0  0  0  0
    7.8661   47.1454   26.7138 H   0  0  0  0  0  0  0  0  0  0  0  0
    5.4447   46.7089   26.4097 H   0  0  0  0  0  0  0  0  0  0  0  0
   11.4000   41.5455   31.4749 H   0  0  0  0  0  0  0  0  0  0  0  0
    9.8309   40.7401   31.7558 H   0  0  0  0  0  0  0  0  0  0  0  0
   11.6988   39.5092   30.3489 H   0  0  0  0  0  0  0  0  0  0  0  0
   10.1130   38.2589   32.6664 H   0  0  0  0  0  0  0  0  0  0  0  0
   13.6800   37.4628   31.2265 H   0  0  0  0  0  0  0  0  0  0  0  0
    8.8952   38.6909   30.8892 H   0  0  0  0  0  0  0  0  0  0  0  0
   11.2830   36.3060   32.4929 H   0  0  0  0  0  0  0  0  0  0  0  0
   11.8859   36.9590   29.7593 H   0  0  0  0  0  0  0  0  0  0  0  0
   12.3361   38.3601   34.7441 H   0  0  0  0  0  0  0  0  0  0  0  0
   16.7572   34.1793   32.4620 H   0  0  0  0  0  0  0  0  0  0  0  0
   16.6362   34.5318   37.1415 H   0  0  0  0  0  0  0  0  0  0  0  0
   15.3528   35.7356   37.5139 H   0  0  0  0  0  0  0  0  0  0  0  0
  1  2  2  0
  1  3  1  0
  3  4  1  0
  4  5  1  0
  6  1  1  0
  7  6  1  0
  6  8  1  0
  8  9  1  0
  9 10  1  0
  9 11  2  0
 10 12  1  0
 12 13  1  0
 13 14  2  0
 15 13  1  0
 14 16  1  0
 17 15  2  0
 16 18  2  0
 18 17  1  0
  4 19  2  0
  4 20  1  0
 21 20  1  0
 21 22  1  0
 22 23  1  0
 22 24  1  0
 23 25  1  0
 24 26  1  0
 24 27  1  0
 27 25  1  0
 25 28  1  0
 27 29  1  0
 30 28  1  0
 31 28  1  0
 32 30  2  0
 30 33  1  0
 34 31  2  0
 35 32  1  0
 33 36  2  0
 33 34  1  0
 37 35  2  0
 37 36  1  0
 36 38  1  0
  6 39  1  6
  7 40  1  0
  7 41  1  0
  8 42  1  0
  8 43  1  0
 12 44  1  0
 12 45  1  0
 14 46  1  0
 15 47  1  0
 16 48  1  0
 17 49  1  0
 18 50  1  0
 21 51  1  0
 21 52  1  0
 22 53  1  0
 24 54  1  0
 25 55  1  0
 26 56  1  0
 27 57  1  0
 29 58  1  0
 31 59  1  0
 35 60  1  0
 38 61  1  0
 38 62  1  0
M  CHG  1   5  -1
M  END
>  <EmbedRMS>  (35) 
0.08884000717631431

$$$$

     RDKit          3D

 62 65  0  0  0  0  0  0  0  0999 V2000
   10.2848   43.7726   33.8067 C   0  0  0  0  0  0  0  0  0  0  0  0
   11.4105   43.5874   34.3561 O   0  0  0  0  0  0  0  0  0  0  0  0
    9.3662   42.7315   33.7017 O   0  0  0  0  0  0  0  0  0  0  0  0
    9.8848   41.2345   34.2850 P   0  0  0  0  0  5  0  0  0  0  0  0
   10.3657   41.4699   35.8753 O   0  0  0  0  0  1  0  0  0  0  0  0
    9.9581   45.1109   33.2441 C   0  0  2  0  0  0  0  0  0  0  0  0
   11.0676   46.0366   33.4847 N   0  0  0  0  0  0  0  0  0  0  0  0
    8.6200   45.6582   33.7907 C   0  0  0  0  0  0  0  0  0  0  0  0
    8.6119   45.8085   35.2834 C   0  0  0  0  0  0  0  0  0  0  0  0
    8.9581   47.0388   35.8533 O   0  0  0  0  0  0  0  0  0  0  0  0
    8.3219   44.8197   36.0110 O   0  0  0  0  0  0  0  0  0  0  0  0
    8.9764   47.2721   37.2598 C   0  0  0  0  0  0  0  0  0  0  0  0
    7.5742   47.3224   37.8025 C   0  0  0  0  0  0  0  0  0  0  0  0
    6.7220   48.3796   37.4447 C   0  0  0  0  0  0  0  0  0  0  0  0
    7.0948   46.3053   38.6451 C   0  0  0  0  0  0  0  0  0  0  0  0
    5.4113   48.4227   37.9301 C   0  0  0  0  0  0  0  0  0  0  0  0
    5.7832   46.3521   39.1281 C   0  0  0  0  0  0  0  0  0  0  0  0
    4.9424   47.4101   38.7717 C   0  0  0  0  0  0  0  0  0  0  0  0
    8.8076   40.1913   34.2091 O   0  0  0  0  0  0  0  0  0  0  0  0
   11.2366   40.7909   33.3690 O   0  0  0  0  0  0  0  0  0  0  0  0
   10.9151   40.6898   31.9961 C   0  0  0  0  0  0  0  0  0  0  0  0
   11.5268   39.3899   31.4375 C   0  0  0  0  0  0  0  0  0  0  0  0
   12.7506   39.0917   32.0840 O   0  0  0  0  0  0  0  0  0  0  0  0
   10.6121   38.1915   31.6452 C   0  0  0  0  0  0  0  0  0  0  0  0
   12.9429   37.6853   32.0295 C   0  0  0  0  0  0  0  0  0  0  0  0
    9.6069   38.0858   30.6603 O   0  0  0  0  0  0  0  0  0  0  0  0
   11.5845   37.0186   31.6880 C   0  0  0  0  0  0  0  0  0  0  0  0
   13.4899   37.2164   33.3250 N   0  0  0  0  0  0  0  0  0  0  0  0
   11.6202   36.3063   30.4693 O   0  0  0  0  0  0  0  0  0  0  0  0
   14.4759   36.3263   33.5738 C   0  0  0  0  0  0  0  0  0  0  0  0
   13.1176   37.6308   34.5699 C   0  0  0  0  0  0  0  0  0  0  0  0
   15.2065   35.6139   32.6746 N   0  0  0  0  0  0  0  0  0  0  0  0
   14.6731   36.2267   34.9191 C   0  0  0  0  0  0  0  0  0  0  0  0
   13.8224   37.0450   35.5792 N   0  0  0  0  0  0  0  0  0  0  0  0
   16.1640   34.7596   33.1551 C   0  0  0  0  0  0  0  0  0  0  0  0
   15.6517   35.3489   35.4136 C   0  0  0  0  0  0  0  0  0  0  0  0
   16.3795   34.6310   34.5046 N   0  0  0  0  0  0  0  0  0  0  0  0
   15.9006   35.1931   36.8094 N   0  0  0  0  0  0  0  0  0  0  0  0
    9.8480   44.9840   32.1447 H   0  0  0  0  0  0  0  0  0  0  0  0
   10.8539   46.9454   33.0130 H   0  0  0  0  0  0  0  0  0  0  0  0
   11.1598   46.2309   34.5084 H   0  0  0  0  0  0  0  0  0  0  0  0
    7.7915   44.9806   33.4891 H   0  0  0  0  0  0  0  0  0  0  0  0
    8.4110   46.6464   33.3272 H   0  0  0  0  0  0  0  0  0  0  0  0
    9.5842   46.4897   37.7654 H   0  0  0  0  0  0  0  0  0  0  0  0
    9.4715   48.2474   37.4512 H   0  0  0  0  0  0  0  0  0  0  0  0
    7.0730   49.1673   36.7894 H   0  0  0  0  0  0  0  0  0  0  0  0
    7.7330   45.4767   38.9258 H   0  0  0  0  0  0  0  0  0  0  0  0
    4.7585   49.2402   37.6524 H   0  0  0  0  0  0  0  0  0  0  0  0
    5.4181   45.5670   39.7775 H   0  0  0  0  0  0  0  0  0  0  0  0
    3.9274   47.4443   39.1459 H   0  0  0  0  0  0  0  0  0  0  0  0
   11.3818   41.5527   31.4745 H   0  0  0  0  0  0  0  0  0  0  0  0
    9.8249   40.7189   31.7591 H   0  0  0  0  0  0  0  0  0  0  0  0
   11.7317   39.5339   30.3522 H   0  0  0  0  0  0  0  0  0  0  0  0
   10.1213   38.2681   32.6413 H   0  0  0  0  0  0  0  0  0  0  0  0
   13.6882   37.4710   31.2319 H   0  0  0  0  0  0  0  0  0  0  0  0
   10.0257   38.1751   29.7656 H   0  0  0  0  0  0  0  0  0  0  0  0
   11.2796   36.3123   32.4915 H   0  0  0  0  0  0  0  0  0  0  0  0
   11.9872   36.9100   29.7715 H   0  0  0  0  0  0  0  0  0  0  0  0
   12.3365   38.3596   34.7454 H   0  0  0  0  0  0  0  0  0  0  0  0
   16.7576   34.1794   32.4622 H   0  0  0  0  0  0  0  0  0  0  0  0
   16.6368   34.5316   37.1418 H   0  0  0  0  0  0  0  0  0  0  0  0
   15.3532   35.7351   37.5143 H   0  0  0  0  0  0  0  0  0  0  0  0
  1  2  2  0
  1  3  1  0
  3  4  1  0
  4  5  1  0
  6  1  1  0
  7  6  1  0
  6  8  1  0
  8  9  1  0
  9 10  1  0
  9 11  2  0
 10 12  1  0
 12 13  1  0
 13 14  2  0
 15 13  1  0
 14 16  1  0
 17 15  2  0
 16 18  2  0
 18 17  1  0
  4 19  2  0
  4 20  1  0
 21 20  1  0
 21 22  1  0
 22 23  1  0
 22 24  1  0
 23 25  1  0
 24 26  1  0
 24 27  1  0
 27 25  1  0
 25 28  1  0
 27 29  1  0
 30 28  1  0
 31 28  1  0
 32 30  2  0
 30 33  1  0
 34 31  2  0
 35 32  1  0
 33 36  2  0
 33 34  1  0
 37 35  2  0
 37 36  1  0
 36 38  1  0
  6 39  1  6
  7 40  1  0
  7 41  1  0
  8 42  1  0
  8 43  1  0
 12 44  1  0
 12 45  1  0
 14 46  1  0
 15 47  1  0
 16 48  1  0
 17 49  1  0
 18 50  1  0
 21 51  1  0
 21 52  1  0
 22 53  1  0
 24 54  1  0
 25 55  1  0
 26 56  1  0
 27 57  1  0
 29 58  1  0
 31 59  1  0
 35 60  1  0
 38 61  1  0
 38 62  1  0
M  CHG  1   5  -1
M  END
>  <EmbedRMS>  (36) 
0.08687067486766072

$$$$

     RDKit          3D

 62 65  0  0  0  0  0  0  0  0999 V2000
   10.2843   43.7743   33.8068 C   0  0  0  0  0  0  0  0  0  0  0  0
   11.4067   43.5903   34.3636 O   0  0  0  0  0  0  0  0  0  0  0  0
    9.3680   42.7310   33.6986 O   0  0  0  0  0  0  0  0  0  0  0  0
    9.8862   41.2340   34.2826 P   0  0  0  0  0  5  0  0  0  0  0  0
   10.3670   41.4693   35.8732 O   0  0  0  0  0  1  0  0  0  0  0  0
    9.9491   45.1165   33.2548 C   0  0  2  0  0  0  0  0  0  0  0  0
   11.0755   46.0281   33.4732 N   0  0  0  0  0  0  0  0  0  0  0  0
    8.6780   45.6535   33.9425 C   0  0  0  0  0  0  0  0  0  0  0  0
    8.1792   46.9027   33.2842 C   0  0  0  0  0  0  0  0  0  0  0  0
    8.5042   48.1462   33.8331 O   0  0  0  0  0  0  0  0  0  0  0  0
    7.5006   46.8243   32.2237 O   0  0  0  0  0  0  0  0  0  0  0  0
    8.1054   49.3760   33.2387 C   0  0  0  0  0  0  0  0  0  0  0  0
    8.6429   50.5149   34.0541 C   0  0  0  0  0  0  0  0  0  0  0  0
    9.9466   50.9884   33.8320 C   0  0  0  0  0  0  0  0  0  0  0  0
    7.8749   51.0708   35.0905 C   0  0  0  0  0  0  0  0  0  0  0  0
   10.4625   52.0242   34.6174 C   0  0  0  0  0  0  0  0  0  0  0  0
    8.3944   52.1066   35.8736 C   0  0  0  0  0  0  0  0  0  0  0  0
    9.6862   52.5846   35.6357 C   0  0  0  0  0  0  0  0  0  0  0  0
    8.8083   40.1914   34.2078 O   0  0  0  0  0  0  0  0  0  0  0  0
   11.2374   40.7904   33.3655 O   0  0  0  0  0  0  0  0  0  0  0  0
   10.9138   40.6842   31.9928 C   0  0  0  0  0  0  0  0  0  0  0  0
   11.5176   39.3772   31.4393 C   0  0  0  0  0  0  0  0  0  0  0  0
   12.7478   39.0868   32.0755 O   0  0  0  0  0  0  0  0  0  0  0  0
   10.6070   38.1851   31.6656 C   0  0  0  0  0  0  0  0  0  0  0  0
   12.9372   37.6810   32.0290 C   0  0  0  0  0  0  0  0  0  0  0  0
    9.6404   38.0882   30.6475 O   0  0  0  0  0  0  0  0  0  0  0  0
   11.5789   37.0133   31.7045 C   0  0  0  0  0  0  0  0  0  0  0  0
   13.4915   37.2181   33.3239 N   0  0  0  0  0  0  0  0  0  0  0  0
   11.6125   36.3388   30.4673 O   0  0  0  0  0  0  0  0  0  0  0  0
   14.4766   36.3272   33.5730 C   0  0  0  0  0  0  0  0  0  0  0  0
   13.1184   37.6317   34.5690 C   0  0  0  0  0  0  0  0  0  0  0  0
   15.2066   35.6139   32.6740 N   0  0  0  0  0  0  0  0  0  0  0  0
   14.6735   36.2273   34.9184 C   0  0  0  0  0  0  0  0  0  0  0  0
   13.8227   37.0455   35.5785 N   0  0  0  0  0  0  0  0  0  0  0  0
   16.1638   34.7593   33.1548 C   0  0  0  0  0  0  0  0  0  0  0  0
   15.6517   35.3491   35.4132 C   0  0  0  0  0  0  0  0  0  0  0  0
   16.3792   34.6308   34.5043 N   0  0  0  0  0  0  0  0  0  0  0  0
   15.9004   35.1932   36.8091 N   0  0  0  0  0  0  0  0  0  0  0  0
    9.7632   45.0050   32.1623 H   0  0  0  0  0  0  0  0  0  0  0  0
   11.8961   45.6758   32.9269 H   0  0  0  0  0  0  0  0  0  0  0  0
   10.8473   46.9547   33.0464 H   0  0  0  0  0  0  0  0  0  0  0  0
    7.8678   44.8928   33.8972 H   0  0  0  0  0  0  0  0  0  0  0  0
    8.8868   45.8593   35.0153 H   0  0  0  0  0  0  0  0  0  0  0  0
    8.4983   49.4353   32.1999 H   0  0  0  0  0  0  0  0  0  0  0  0
    6.9955   49.4261   33.1896 H   0  0  0  0  0  0  0  0  0  0  0  0
   10.5619   50.5553   33.0530 H   0  0  0  0  0  0  0  0  0  0  0  0
    6.8764   50.7028   35.2921 H   0  0  0  0  0  0  0  0  0  0  0  0
   11.4655   52.3896   34.4392 H   0  0  0  0  0  0  0  0  0  0  0  0
    7.7971   52.5359   36.6675 H   0  0  0  0  0  0  0  0  0  0  0  0
   10.0874   53.3851   36.2436 H   0  0  0  0  0  0  0  0  0  0  0  0
   11.3853   41.5413   31.4661 H   0  0  0  0  0  0  0  0  0  0  0  0
    9.8236   40.7188   31.7567 H   0  0  0  0  0  0  0  0  0  0  0  0
   11.7008   39.5015   30.3469 H   0  0  0  0  0  0  0  0  0  0  0  0
   10.1099   38.2752   32.6605 H   0  0  0  0  0  0  0  0  0  0  0  0
   13.6714   37.4590   31.2227 H   0  0  0  0  0  0  0  0  0  0  0  0
    9.0033   37.3835   30.9351 H   0  0  0  0  0  0  0  0  0  0  0  0
   11.2706   36.3048   32.5088 H   0  0  0  0  0  0  0  0  0  0  0  0
   12.1443   35.5135   30.6141 H   0  0  0  0  0  0  0  0  0  0  0  0
   12.3362   38.3592   34.7444 H   0  0  0  0  0  0  0  0  0  0  0  0
   16.7571   34.1787   32.4620 H   0  0  0  0  0  0  0  0  0  0  0  0
   15.3531   35.7355   37.5139 H   0  0  0  0  0  0  0  0  0  0  0  0
   16.6363   34.5314   37.1416 H   0  0  0  0  0  0  0  0  0  0  0  0
  1  2  2  0
  1  3  1  0
  3  4  1  0
  4  5  1  0
  6  1  1  0
  7  6  1  0
  6  8  1  0
  8  9  1  0
  9 10  1  0
  9 11  2  0
 10 12  1  0
 12 13  1  0
 13 14  2  0
 15 13  1  0
 14 16  1  0
 17 15  2  0
 16 18  2  0
 18 17  1  0
  4 19  2  0
  4 20  1  0
 21 20  1  0
 21 22  1  0
 22 23  1  0
 22 24  1  0
 23 25  1  0
 24 26  1  0
 24 27  1  0
 27 25  1  0
 25 28  1  0
 27 29  1  0
 30 28  1  0
 31 28  1  0
 32 30  2  0
 30 33  1  0
 34 31  2  0
 35 32  1  0
 33 36  2  0
 33 34  1  0
 37 35  2  0
 37 36  1  0
 36 38  1  0
  6 39  1  6
  7 40  1  0
  7 41  1  0
  8 42  1  0
  8 43  1  0
 12 44  1  0
 12 45  1  0
 14 46  1  0
 15 47  1  0
 16 48  1  0
 17 49  1  0
 18 50  1  0
 21 51  1  0
 21 52  1  0
 22 53  1  0
 24 54  1  0
 25 55  1  0
 26 56  1  0
 27 57  1  0
 29 58  1  0
 31 59  1  0
 35 60  1  0
 38 61  1  0
 38 62  1  0
M  CHG  1   5  -1
M  END
>  <EmbedRMS>  (37) 
0.08891802796399667

$$$$

     RDKit          3D

 62 65  0  0  0  0  0  0  0  0999 V2000
   10.2848   43.7732   33.8089 C   0  0  0  0  0  0  0  0  0  0  0  0
   11.4112   43.5878   34.3563 O   0  0  0  0  0  0  0  0  0  0  0  0
    9.3668   42.7317   33.7033 O   0  0  0  0  0  0  0  0  0  0  0  0
    9.8856   41.2338   34.2842 P   0  0  0  0  0  5  0  0  0  0  0  0
   10.3651   41.4660   35.8748 O   0  0  0  0  0  1  0  0  0  0  0  0
    9.9586   45.1100   33.2424 C   0  0  2  0  0  0  0  0  0  0  0  0
   11.0674   46.0375   33.4826 N   0  0  0  0  0  0  0  0  0  0  0  0
    8.6170   45.6576   33.7817 C   0  0  0  0  0  0  0  0  0  0  0  0
    8.6481   45.9338   35.2558 C   0  0  0  0  0  0  0  0  0  0  0  0
    8.6999   44.8660   36.1588 O   0  0  0  0  0  0  0  0  0  0  0  0
    8.6533   47.1260   35.6676 O   0  0  0  0  0  0  0  0  0  0  0  0
    8.9023   45.0374   37.5595 C   0  0  0  0  0  0  0  0  0  0  0  0
   10.3083   45.5009   37.8293 C   0  0  0  0  0  0  0  0  0  0  0  0
   10.5612   46.8196   38.2432 C   0  0  0  0  0  0  0  0  0  0  0  0
   11.3868   44.6270   37.6191 C   0  0  0  0  0  0  0  0  0  0  0  0
   11.8748   47.2523   38.4504 C   0  0  0  0  0  0  0  0  0  0  0  0
   12.6988   45.0635   37.8259 C   0  0  0  0  0  0  0  0  0  0  0  0
   12.9427   46.3752   38.2418 C   0  0  0  0  0  0  0  0  0  0  0  0
    8.8081   40.1911   34.2069 O   0  0  0  0  0  0  0  0  0  0  0  0
   11.2385   40.7909   33.3686 O   0  0  0  0  0  0  0  0  0  0  0  0
   10.9193   40.6897   31.9949 C   0  0  0  0  0  0  0  0  0  0  0  0
   11.5170   39.3802   31.4399 C   0  0  0  0  0  0  0  0  0  0  0  0
   12.7478   39.0862   32.0735 O   0  0  0  0  0  0  0  0  0  0  0  0
   10.6031   38.1892   31.6667 C   0  0  0  0  0  0  0  0  0  0  0  0
   12.9335   37.6797   32.0280 C   0  0  0  0  0  0  0  0  0  0  0  0
    9.6397   38.0778   30.6457 O   0  0  0  0  0  0  0  0  0  0  0  0
   11.5739   37.0155   31.7058 C   0  0  0  0  0  0  0  0  0  0  0  0
   13.4903   37.2178   33.3231 N   0  0  0  0  0  0  0  0  0  0  0  0
   11.6211   36.3377   30.4695 O   0  0  0  0  0  0  0  0  0  0  0  0
   14.4761   36.3273   33.5725 C   0  0  0  0  0  0  0  0  0  0  0  0
   13.1179   37.6317   34.5684 C   0  0  0  0  0  0  0  0  0  0  0  0
   15.2063   35.6139   32.6737 N   0  0  0  0  0  0  0  0  0  0  0  0
   14.6733   36.2278   34.9180 C   0  0  0  0  0  0  0  0  0  0  0  0
   13.8226   37.0459   35.5780 N   0  0  0  0  0  0  0  0  0  0  0  0
   16.1636   34.7595   33.1546 C   0  0  0  0  0  0  0  0  0  0  0  0
   15.6515   35.3494   35.4129 C   0  0  0  0  0  0  0  0  0  0  0  0
   16.3791   34.6311   34.5041 N   0  0  0  0  0  0  0  0  0  0  0  0
   15.9001   35.1935   36.8088 N   0  0  0  0  0  0  0  0  0  0  0  0
    9.8518   44.9777   32.1435 H   0  0  0  0  0  0  0  0  0  0  0  0
   11.1699   46.2227   34.5074 H   0  0  0  0  0  0  0  0  0  0  0  0
   10.8460   46.9499   33.0215 H   0  0  0  0  0  0  0  0  0  0  0  0
    7.8031   44.9307   33.5713 H   0  0  0  0  0  0  0  0  0  0  0  0
    8.3625   46.5922   33.2353 H   0  0  0  0  0  0  0  0  0  0  0  0
    8.7394   44.0615   38.0639 H   0  0  0  0  0  0  0  0  0  0  0  0
    8.1516   45.7495   37.9672 H   0  0  0  0  0  0  0  0  0  0  0  0
    9.7445   47.5132   38.3999 H   0  0  0  0  0  0  0  0  0  0  0  0
   11.2110   43.6107   37.2922 H   0  0  0  0  0  0  0  0  0  0  0  0
   12.0650   48.2690   38.7691 H   0  0  0  0  0  0  0  0  0  0  0  0
   13.5263   44.3856   37.6613 H   0  0  0  0  0  0  0  0  0  0  0  0
   13.9588   46.7124   38.4006 H   0  0  0  0  0  0  0  0  0  0  0  0
    9.8314   40.7398   31.7550 H   0  0  0  0  0  0  0  0  0  0  0  0
   11.4007   41.5439   31.4727 H   0  0  0  0  0  0  0  0  0  0  0  0
   11.6982   39.5044   30.3472 H   0  0  0  0  0  0  0  0  0  0  0  0
   10.1089   38.2632   32.6650 H   0  0  0  0  0  0  0  0  0  0  0  0
   13.6655   37.4542   31.2208 H   0  0  0  0  0  0  0  0  0  0  0  0
    8.8965   38.6901   30.8852 H   0  0  0  0  0  0  0  0  0  0  0  0
   11.2846   36.3061   32.5176 H   0  0  0  0  0  0  0  0  0  0  0  0
   10.8523   35.7095   30.4590 H   0  0  0  0  0  0  0  0  0  0  0  0
   12.3353   38.3589   34.7440 H   0  0  0  0  0  0  0  0  0  0  0  0
   16.7570   34.1788   32.4619 H   0  0  0  0  0  0  0  0  0  0  0  0
   15.3529   35.7359   37.5136 H   0  0  0  0  0  0  0  0  0  0  0  0
   16.6360   34.5317   37.1413 H   0  0  0  0  0  0  0  0  0  0  0  0
  1  2  2  0
  1  3  1  0
  3  4  1  0
  4  5  1  0
  6  1  1  0
  7  6  1  0
  6  8  1  0
  8  9  1  0
  9 10  1  0
  9 11  2  0
 10 12  1  0
 12 13  1  0
 13 14  2  0
 15 13  1  0
 14 16  1  0
 17 15  2  0
 16 18  2  0
 18 17  1  0
  4 19  2  0
  4 20  1  0
 21 20  1  0
 21 22  1  0
 22 23  1  0
 22 24  1  0
 23 25  1  0
 24 26  1  0
 24 27  1  0
 27 25  1  0
 25 28  1  0
 27 29  1  0
 30 28  1  0
 31 28  1  0
 32 30  2  0
 30 33  1  0
 34 31  2  0
 35 32  1  0
 33 36  2  0
 33 34  1  0
 37 35  2  0
 37 36  1  0
 36 38  1  0
  6 39  1  6
  7 40  1  0
  7 41  1  0
  8 42  1  0
  8 43  1  0
 12 44  1  0
 12 45  1  0
 14 46  1  0
 15 47  1  0
 16 48  1  0
 17 49  1  0
 18 50  1  0
 21 51  1  0
 21 52  1  0
 22 53  1  0
 24 54  1  0
 25 55  1  0
 26 56  1  0
 27 57  1  0
 29 58  1  0
 31 59  1  0
 35 60  1  0
 38 61  1  0
 38 62  1  0
M  CHG  1   5  -1
M  END
>  <EmbedRMS>  (38) 
0.0895699208139563

$$$$

     RDKit          3D

 62 65  0  0  0  0  0  0  0  0999 V2000
   10.2845   43.7742   33.8070 C   0  0  0  0  0  0  0  0  0  0  0  0
   11.4070   43.5904   34.3638 O   0  0  0  0  0  0  0  0  0  0  0  0
    9.3683   42.7308   33.6986 O   0  0  0  0  0  0  0  0  0  0  0  0
    9.8864   41.2339   34.2832 P   0  0  0  0  0  5  0  0  0  0  0  0
   10.3660   41.4694   35.8740 O   0  0  0  0  0  1  0  0  0  0  0  0
    9.9497   45.1158   33.2538 C   0  0  2  0  0  0  0  0  0  0  0  0
   11.0750   46.0281   33.4738 N   0  0  0  0  0  0  0  0  0  0  0  0
    8.6772   45.6535   33.9379 C   0  0  0  0  0  0  0  0  0  0  0  0
    8.1758   46.8963   33.2692 C   0  0  0  0  0  0  0  0  0  0  0  0
    7.6130   46.8086   31.9931 O   0  0  0  0  0  0  0  0  0  0  0  0
    8.2831   48.0105   33.8508 O   0  0  0  0  0  0  0  0  0  0  0  0
    7.1437   47.9472   31.2803 C   0  0  0  0  0  0  0  0  0  0  0  0
    6.6262   47.5116   29.9412 C   0  0  0  0  0  0  0  0  0  0  0  0
    7.5025   47.3914   28.8500 C   0  0  0  0  0  0  0  0  0  0  0  0
    5.2771   47.1532   29.7844 C   0  0  0  0  0  0  0  0  0  0  0  0
    7.0279   46.9472   27.6118 C   0  0  0  0  0  0  0  0  0  0  0  0
    4.8064   46.7095   28.5445 C   0  0  0  0  0  0  0  0  0  0  0  0
    5.6804   46.6089   27.4584 C   0  0  0  0  0  0  0  0  0  0  0  0
    8.8088   40.1911   34.2072 O   0  0  0  0  0  0  0  0  0  0  0  0
   11.2391   40.7900   33.3683 O   0  0  0  0  0  0  0  0  0  0  0  0
   10.9199   40.6894   31.9945 C   0  0  0  0  0  0  0  0  0  0  0  0
   11.5173   39.3800   31.4395 C   0  0  0  0  0  0  0  0  0  0  0  0
   12.7480   39.0860   32.0731 O   0  0  0  0  0  0  0  0  0  0  0  0
   10.6032   38.1891   31.6666 C   0  0  0  0  0  0  0  0  0  0  0  0
   12.9336   37.6795   32.0279 C   0  0  0  0  0  0  0  0  0  0  0  0
    9.6397   38.0777   30.6456 O   0  0  0  0  0  0  0  0  0  0  0  0
   11.5739   37.0153   31.7057 C   0  0  0  0  0  0  0  0  0  0  0  0
   13.4903   37.2177   33.3231 N   0  0  0  0  0  0  0  0  0  0  0  0
   11.6210   36.3376   30.4695 O   0  0  0  0  0  0  0  0  0  0  0  0
   14.4761   36.3273   33.5725 C   0  0  0  0  0  0  0  0  0  0  0  0
   13.1179   37.6316   34.5684 C   0  0  0  0  0  0  0  0  0  0  0  0
   15.2063   35.6139   32.6737 N   0  0  0  0  0  0  0  0  0  0  0  0
   14.6734   36.2277   34.9180 C   0  0  0  0  0  0  0  0  0  0  0  0
   13.8225   37.0459   35.5779 N   0  0  0  0  0  0  0  0  0  0  0  0
   16.1636   34.7594   33.1546 C   0  0  0  0  0  0  0  0  0  0  0  0
   15.6515   35.3494   35.4129 C   0  0  0  0  0  0  0  0  0  0  0  0
   16.3791   34.6311   34.5041 N   0  0  0  0  0  0  0  0  0  0  0  0
   15.9001   35.1935   36.8088 N   0  0  0  0  0  0  0  0  0  0  0  0
    9.7670   45.0028   32.1608 H   0  0  0  0  0  0  0  0  0  0  0  0
   10.8421   46.9575   33.0554 H   0  0  0  0  0  0  0  0  0  0  0  0
   11.8939   45.6811   32.9219 H   0  0  0  0  0  0  0  0  0  0  0  0
    7.8668   44.8943   33.8848 H   0  0  0  0  0  0  0  0  0  0  0  0
    8.8816   45.8552   35.0130 H   0  0  0  0  0  0  0  0  0  0  0  0
    7.9737   48.6757   31.1487 H   0  0  0  0  0  0  0  0  0  0  0  0
    6.3371   48.4467   31.8608 H   0  0  0  0  0  0  0  0  0  0  0  0
    8.5510   47.6404   28.9586 H   0  0  0  0  0  0  0  0  0  0  0  0
    4.5916   47.2165   30.6206 H   0  0  0  0  0  0  0  0  0  0  0  0
    7.7055   46.8614   26.7722 H   0  0  0  0  0  0  0  0  0  0  0  0
    3.7649   46.4396   28.4266 H   0  0  0  0  0  0  0  0  0  0  0  0
    5.3149   46.2639   26.4998 H   0  0  0  0  0  0  0  0  0  0  0  0
   11.4017   41.5436   31.4725 H   0  0  0  0  0  0  0  0  0  0  0  0
    9.8321   40.7398   31.7544 H   0  0  0  0  0  0  0  0  0  0  0  0
   11.6984   39.5040   30.3468 H   0  0  0  0  0  0  0  0  0  0  0  0
   10.1091   38.2633   32.6649 H   0  0  0  0  0  0  0  0  0  0  0  0
   13.6656   37.4538   31.2207 H   0  0  0  0  0  0  0  0  0  0  0  0
    8.8967   38.6902   30.8850 H   0  0  0  0  0  0  0  0  0  0  0  0
   11.2845   36.3060   32.5175 H   0  0  0  0  0  0  0  0  0  0  0  0
   10.8523   35.7094   30.4590 H   0  0  0  0  0  0  0  0  0  0  0  0
   12.3353   38.3587   34.7439 H   0  0  0  0  0  0  0  0  0  0  0  0
   16.7570   34.1788   32.4619 H   0  0  0  0  0  0  0  0  0  0  0  0
   16.6360   34.5317   37.1414 H   0  0  0  0  0  0  0  0  0  0  0  0
   15.3529   35.7359   37.5136 H   0  0  0  0  0  0  0  0  0  0  0  0
  1  2  2  0
  1  3  1  0
  3  4  1  0
  4  5  1  0
  6  1  1  0
  7  6  1  0
  6  8  1  0
  8  9  1  0
  9 10  1  0
  9 11  2  0
 10 12  1  0
 12 13  1  0
 13 14  2  0
 15 13  1  0
 14 16  1  0
 17 15  2  0
 16 18  2  0
 18 17  1  0
  4 19  2  0
  4 20  1  0
 21 20  1  0
 21 22  1  0
 22 23  1  0
 22 24  1  0
 23 25  1  0
 24 26  1  0
 24 27  1  0
 27 25  1  0
 25 28  1  0
 27 29  1  0
 30 28  1  0
 31 28  1  0
 32 30  2  0
 30 33  1  0
 34 31  2  0
 35 32  1  0
 33 36  2  0
 33 34  1  0
 37 35  2  0
 37 36  1  0
 36 38  1  0
  6 39  1  6
  7 40  1  0
  7 41  1  0
  8 42  1  0
  8 43  1  0
 12 44  1  0
 12 45  1  0
 14 46  1  0
 15 47  1  0
 16 48  1  0
 17 49  1  0
 18 50  1  0
 21 51  1  0
 21 52  1  0
 22 53  1  0
 24 54  1  0
 25 55  1  0
 26 56  1  0
 27 57  1  0
 29 58  1  0
 31 59  1  0
 35 60  1  0
 38 61  1  0
 38 62  1  0
M  CHG  1   5  -1
M  END
>  <EmbedRMS>  (39) 
0.08950807511113089

$$$$

     RDKit          3D

 62 65  0  0  0  0  0  0  0  0999 V2000
   10.2860   43.7720   33.8048 C   0  0  0  0  0  0  0  0  0  0  0  0
   11.4085   43.5886   34.3612 O   0  0  0  0  0  0  0  0  0  0  0  0
    9.3675   42.7309   33.6994 O   0  0  0  0  0  0  0  0  0  0  0  0
    9.8855   41.2342   34.2843 P   0  0  0  0  0  5  0  0  0  0  0  0
   10.3651   41.4701   35.8750 O   0  0  0  0  0  1  0  0  0  0  0  0
    9.9529   45.1148   33.2533 C   0  0  2  0  0  0  0  0  0  0  0  0
   11.0714   46.0331   33.4765 N   0  0  0  0  0  0  0  0  0  0  0  0
    8.6600   45.6657   33.8888 C   0  0  0  0  0  0  0  0  0  0  0  0
    8.7921   45.8607   35.3703 C   0  0  0  0  0  0  0  0  0  0  0  0
    9.4234   47.0077   35.8582 O   0  0  0  0  0  0  0  0  0  0  0  0
    8.3686   44.9732   36.1604 O   0  0  0  0  0  0  0  0  0  0  0  0
    9.6365   47.2359   37.2464 C   0  0  0  0  0  0  0  0  0  0  0  0
   10.3740   48.5299   37.4251 C   0  0  0  0  0  0  0  0  0  0  0  0
    9.6687   49.7284   37.6234 C   0  0  0  0  0  0  0  0  0  0  0  0
   11.7747   48.5628   37.3258 C   0  0  0  0  0  0  0  0  0  0  0  0
   10.3589   50.9382   37.7503 C   0  0  0  0  0  0  0  0  0  0  0  0
   12.4611   49.7747   37.4530 C   0  0  0  0  0  0  0  0  0  0  0  0
   11.7540   50.9610   37.6676 C   0  0  0  0  0  0  0  0  0  0  0  0
    8.8081   40.1911   34.2080 O   0  0  0  0  0  0  0  0  0  0  0  0
   11.2382   40.7905   33.3697 O   0  0  0  0  0  0  0  0  0  0  0  0
   10.9190   40.6905   31.9962 C   0  0  0  0  0  0  0  0  0  0  0  0
   11.5176   39.3824   31.4412 C   0  0  0  0  0  0  0  0  0  0  0  0
   12.7495   39.0892   32.0755 O   0  0  0  0  0  0  0  0  0  0  0  0
   10.6036   38.1899   31.6659 C   0  0  0  0  0  0  0  0  0  0  0  0
   12.9401   37.6833   32.0276 C   0  0  0  0  0  0  0  0  0  0  0  0
    9.6377   38.0785   30.6474 O   0  0  0  0  0  0  0  0  0  0  0  0
   11.5803   37.0203   31.6937 C   0  0  0  0  0  0  0  0  0  0  0  0
   13.4902   37.2177   33.3237 N   0  0  0  0  0  0  0  0  0  0  0  0
   11.6117   36.3193   30.4680 O   0  0  0  0  0  0  0  0  0  0  0  0
   14.4759   36.3271   33.5731 C   0  0  0  0  0  0  0  0  0  0  0  0
   13.1176   37.6317   34.5688 C   0  0  0  0  0  0  0  0  0  0  0  0
   15.2064   35.6141   32.6742 N   0  0  0  0  0  0  0  0  0  0  0  0
   14.6729   36.2274   34.9184 C   0  0  0  0  0  0  0  0  0  0  0  0
   13.8221   37.0457   35.5783 N   0  0  0  0  0  0  0  0  0  0  0  0
   16.1637   34.7597   33.1549 C   0  0  0  0  0  0  0  0  0  0  0  0
   15.6514   35.3493   35.4133 C   0  0  0  0  0  0  0  0  0  0  0  0
   16.3791   34.6312   34.5044 N   0  0  0  0  0  0  0  0  0  0  0  0
   15.9001   35.1935   36.8091 N   0  0  0  0  0  0  0  0  0  0  0  0
    9.7834   45.0052   32.1585 H   0  0  0  0  0  0  0  0  0  0  0  0
   11.8826   45.7127   32.8978 H   0  0  0  0  0  0  0  0  0  0  0  0
   10.8102   46.9719   33.0959 H   0  0  0  0  0  0  0  0  0  0  0  0
    7.8132   44.9766   33.6763 H   0  0  0  0  0  0  0  0  0  0  0  0
    8.4062   46.6413   33.4210 H   0  0  0  0  0  0  0  0  0  0  0  0
    8.6586   47.2711   37.7748 H   0  0  0  0  0  0  0  0  0  0  0  0
   10.2301   46.3998   37.6772 H   0  0  0  0  0  0  0  0  0  0  0  0
    8.5871   49.7263   37.6790 H   0  0  0  0  0  0  0  0  0  0  0  0
   12.3333   47.6519   37.1489 H   0  0  0  0  0  0  0  0  0  0  0  0
    9.8118   51.8587   37.9086 H   0  0  0  0  0  0  0  0  0  0  0  0
   13.5409   49.7946   37.3811 H   0  0  0  0  0  0  0  0  0  0  0  0
   12.2865   51.8983   37.7644 H   0  0  0  0  0  0  0  0  0  0  0  0
    9.8311   40.7397   31.7559 H   0  0  0  0  0  0  0  0  0  0  0  0
   11.4000   41.5454   31.4747 H   0  0  0  0  0  0  0  0  0  0  0  0
   11.6990   39.5091   30.3489 H   0  0  0  0  0  0  0  0  0  0  0  0
   10.1131   38.2589   32.6664 H   0  0  0  0  0  0  0  0  0  0  0  0
   13.6800   37.4627   31.2265 H   0  0  0  0  0  0  0  0  0  0  0  0
    8.8953   38.6909   30.8891 H   0  0  0  0  0  0  0  0  0  0  0  0
   11.2830   36.3060   32.4929 H   0  0  0  0  0  0  0  0  0  0  0  0
   11.8859   36.9589   29.7593 H   0  0  0  0  0  0  0  0  0  0  0  0
   12.3360   38.3600   34.7441 H   0  0  0  0  0  0  0  0  0  0  0  0
   16.7572   34.1793   32.4621 H   0  0  0  0  0  0  0  0  0  0  0  0
   16.6362   34.5318   37.1416 H   0  0  0  0  0  0  0  0  0  0  0  0
   15.3528   35.7357   37.5140 H   0  0  0  0  0  0  0  0  0  0  0  0
  1  2  2  0
  1  3  1  0
  3  4  1  0
  4  5  1  0
  6  1  1  0
  7  6  1  0
  6  8  1  0
  8  9  1  0
  9 10  1  0
  9 11  2  0
 10 12  1  0
 12 13  1  0
 13 14  2  0
 15 13  1  0
 14 16  1  0
 17 15  2  0
 16 18  2  0
 18 17  1  0
  4 19  2  0
  4 20  1  0
 21 20  1  0
 21 22  1  0
 22 23  1  0
 22 24  1  0
 23 25  1  0
 24 26  1  0
 24 27  1  0
 27 25  1  0
 25 28  1  0
 27 29  1  0
 30 28  1  0
 31 28  1  0
 32 30  2  0
 30 33  1  0
 34 31  2  0
 35 32  1  0
 33 36  2  0
 33 34  1  0
 37 35  2  0
 37 36  1  0
 36 38  1  0
  6 39  1  6
  7 40  1  0
  7 41  1  0
  8 42  1  0
  8 43  1  0
 12 44  1  0
 12 45  1  0
 14 46  1  0
 15 47  1  0
 16 48  1  0
 17 49  1  0
 18 50  1  0
 21 51  1  0
 21 52  1  0
 22 53  1  0
 24 54  1  0
 25 55  1  0
 26 56  1  0
 27 57  1  0
 29 58  1  0
 31 59  1  0
 35 60  1  0
 38 61  1  0
 38 62  1  0
M  CHG  1   5  -1
M  END
>  <EmbedRMS>  (40) 
0.08832983886321398

$$$$

     RDKit          3D

 62 65  0  0  0  0  0  0  0  0999 V2000
   10.2858   43.7721   33.8048 C   0  0  0  0  0  0  0  0  0  0  0  0
   11.4084   43.5885   34.3611 O   0  0  0  0  0  0  0  0  0  0  0  0
    9.3672   42.7311   33.6995 O   0  0  0  0  0  0  0  0  0  0  0  0
    9.8850   41.2344   34.2844 P   0  0  0  0  0  5  0  0  0  0  0  0
   10.3655   41.4703   35.8749 O   0  0  0  0  0  1  0  0  0  0  0  0
    9.9529   45.1149   33.2535 C   0  0  2  0  0  0  0  0  0  0  0  0
   11.0716   46.0331   33.4764 N   0  0  0  0  0  0  0  0  0  0  0  0
    8.6603   45.6661   33.8896 C   0  0  0  0  0  0  0  0  0  0  0  0
    8.7930   45.8605   35.3711 C   0  0  0  0  0  0  0  0  0  0  0  0
    9.4267   47.0063   35.8591 O   0  0  0  0  0  0  0  0  0  0  0  0
    8.3679   44.9738   36.1612 O   0  0  0  0  0  0  0  0  0  0  0  0
    9.6407   47.2337   37.2472 C   0  0  0  0  0  0  0  0  0  0  0  0
   10.3815   48.5259   37.4260 C   0  0  0  0  0  0  0  0  0  0  0  0
    9.6791   49.7260   37.6253 C   0  0  0  0  0  0  0  0  0  0  0  0
   11.7822   48.5555   37.3255 C   0  0  0  0  0  0  0  0  0  0  0  0
   10.3723   50.9341   37.7522 C   0  0  0  0  0  0  0  0  0  0  0  0
   12.4715   49.7656   37.4527 C   0  0  0  0  0  0  0  0  0  0  0  0
   11.7674   50.9536   37.6684 C   0  0  0  0  0  0  0  0  0  0  0  0
    8.8077   40.1913   34.2087 O   0  0  0  0  0  0  0  0  0  0  0  0
   11.2369   40.7903   33.3690 O   0  0  0  0  0  0  0  0  0  0  0  0
   10.9155   40.6897   31.9960 C   0  0  0  0  0  0  0  0  0  0  0  0
   11.5270   39.3898   31.4374 C   0  0  0  0  0  0  0  0  0  0  0  0
   12.7508   39.0916   32.0838 O   0  0  0  0  0  0  0  0  0  0  0  0
   10.6122   38.1916   31.6452 C   0  0  0  0  0  0  0  0  0  0  0  0
   12.9429   37.6852   32.0295 C   0  0  0  0  0  0  0  0  0  0  0  0
    9.6070   38.0858   30.6603 O   0  0  0  0  0  0  0  0  0  0  0  0
   11.5845   37.0186   31.6879 C   0  0  0  0  0  0  0  0  0  0  0  0
   13.4899   37.2163   33.3250 N   0  0  0  0  0  0  0  0  0  0  0  0
   11.6201   36.3062   30.4693 O   0  0  0  0  0  0  0  0  0  0  0  0
   14.4759   36.3263   33.5738 C   0  0  0  0  0  0  0  0  0  0  0  0
   13.1176   37.6307   34.5699 C   0  0  0  0  0  0  0  0  0  0  0  0
   15.2065   35.6139   32.6746 N   0  0  0  0  0  0  0  0  0  0  0  0
   14.6731   36.2267   34.9191 C   0  0  0  0  0  0  0  0  0  0  0  0
   13.8224   37.0450   35.5792 N   0  0  0  0  0  0  0  0  0  0  0  0
   16.1640   34.7596   33.1551 C   0  0  0  0  0  0  0  0  0  0  0  0
   15.6517   35.3489   35.4136 C   0  0  0  0  0  0  0  0  0  0  0  0
   16.3795   34.6310   34.5046 N   0  0  0  0  0  0  0  0  0  0  0  0
   15.9006   35.1931   36.8094 N   0  0  0  0  0  0  0  0  0  0  0  0
    9.7829   45.0055   32.1587 H   0  0  0  0  0  0  0  0  0  0  0  0
   11.8826   45.7125   32.8974 H   0  0  0  0  0  0  0  0  0  0  0  0
   10.8104   46.9719   33.0959 H   0  0  0  0  0  0  0  0  0  0  0  0
    8.4066   46.6418   33.4222 H   0  0  0  0  0  0  0  0  0  0  0  0
    7.8132   44.9772   33.6771 H   0  0  0  0  0  0  0  0  0  0  0  0
    8.6631   47.2711   37.7760 H   0  0  0  0  0  0  0  0  0  0  0  0
   10.2325   46.3961   37.6777 H   0  0  0  0  0  0  0  0  0  0  0  0
    8.5976   49.7264   37.6817 H   0  0  0  0  0  0  0  0  0  0  0  0
   12.3384   47.6433   37.1479 H   0  0  0  0  0  0  0  0  0  0  0  0
    9.8276   51.8557   37.9113 H   0  0  0  0  0  0  0  0  0  0  0  0
   13.5513   49.7830   37.3799 H   0  0  0  0  0  0  0  0  0  0  0  0
   12.3022   51.8896   37.7653 H   0  0  0  0  0  0  0  0  0  0  0  0
   11.3825   41.5526   31.4746 H   0  0  0  0  0  0  0  0  0  0  0  0
    9.8254   40.7190   31.7587 H   0  0  0  0  0  0  0  0  0  0  0  0
   11.7318   39.5338   30.3520 H   0  0  0  0  0  0  0  0  0  0  0  0
   10.1215   38.2682   32.6412 H   0  0  0  0  0  0  0  0  0  0  0  0
   13.6882   37.4708   31.2319 H   0  0  0  0  0  0  0  0  0  0  0  0
   10.0257   38.1751   29.7656 H   0  0  0  0  0  0  0  0  0  0  0  0
   11.2796   36.3123   32.4915 H   0  0  0  0  0  0  0  0  0  0  0  0
   11.9872   36.9099   29.7715 H   0  0  0  0  0  0  0  0  0  0  0  0
   12.3365   38.3596   34.7453 H   0  0  0  0  0  0  0  0  0  0  0  0
   16.7577   34.1794   32.4622 H   0  0  0  0  0  0  0  0  0  0  0  0
   15.3532   35.7351   37.5143 H   0  0  0  0  0  0  0  0  0  0  0  0
   16.6368   34.5316   37.1418 H   0  0  0  0  0  0  0  0  0  0  0  0
  1  2  2  0
  1  3  1  0
  3  4  1  0
  4  5  1  0
  6  1  1  0
  7  6  1  0
  6  8  1  0
  8  9  1  0
  9 10  1  0
  9 11  2  0
 10 12  1  0
 12 13  1  0
 13 14  2  0
 15 13  1  0
 14 16  1  0
 17 15  2  0
 16 18  2  0
 18 17  1  0
  4 19  2  0
  4 20  1  0
 21 20  1  0
 21 22  1  0
 22 23  1  0
 22 24  1  0
 23 25  1  0
 24 26  1  0
 24 27  1  0
 27 25  1  0
 25 28  1  0
 27 29  1  0
 30 28  1  0
 31 28  1  0
 32 30  2  0
 30 33  1  0
 34 31  2  0
 35 32  1  0
 33 36  2  0
 33 34  1  0
 37 35  2  0
 37 36  1  0
 36 38  1  0
  6 39  1  6
  7 40  1  0
  7 41  1  0
  8 42  1  0
  8 43  1  0
 12 44  1  0
 12 45  1  0
 14 46  1  0
 15 47  1  0
 16 48  1  0
 17 49  1  0
 18 50  1  0
 21 51  1  0
 21 52  1  0
 22 53  1  0
 24 54  1  0
 25 55  1  0
 26 56  1  0
 27 57  1  0
 29 58  1  0
 31 59  1  0
 35 60  1  0
 38 61  1  0
 38 62  1  0
M  CHG  1   5  -1
M  END
>  <EmbedRMS>  (41) 
0.08700285660990947

$$$$

     RDKit          3D

 62 65  0  0  0  0  0  0  0  0999 V2000
   10.2856   43.7717   33.8042 C   0  0  0  0  0  0  0  0  0  0  0  0
   11.4104   43.5871   34.3557 O   0  0  0  0  0  0  0  0  0  0  0  0
    9.3666   42.7311   33.7000 O   0  0  0  0  0  0  0  0  0  0  0  0
    9.8851   41.2344   34.2844 P   0  0  0  0  0  5  0  0  0  0  0  0
   10.3661   41.4701   35.8744 O   0  0  0  0  0  1  0  0  0  0  0  0
    9.9553   45.1130   33.2485 C   0  0  2  0  0  0  0  0  0  0  0  0
   11.0692   46.0343   33.4836 N   0  0  0  0  0  0  0  0  0  0  0  0
    8.6221   45.6647   33.8085 C   0  0  0  0  0  0  0  0  0  0  0  0
    8.5544   45.6247   35.3073 C   0  0  0  0  0  0  0  0  0  0  0  0
    9.1699   46.6328   36.0569 O   0  0  0  0  0  0  0  0  0  0  0  0
    7.9798   44.6584   35.8796 O   0  0  0  0  0  0  0  0  0  0  0  0
    9.3748   46.5391   37.4646 C   0  0  0  0  0  0  0  0  0  0  0  0
   10.4036   45.4830   37.7676 C   0  0  0  0  0  0  0  0  0  0  0  0
   11.7465   45.6916   37.4142 C   0  0  0  0  0  0  0  0  0  0  0  0
   10.0258   44.2601   38.3470 C   0  0  0  0  0  0  0  0  0  0  0  0
   12.6983   44.6930   37.6422 C   0  0  0  0  0  0  0  0  0  0  0  0
   10.9814   43.2654   38.5768 C   0  0  0  0  0  0  0  0  0  0  0  0
   12.3162   43.4809   38.2231 C   0  0  0  0  0  0  0  0  0  0  0  0
    8.8077   40.1915   34.2092 O   0  0  0  0  0  0  0  0  0  0  0  0
   11.2368   40.7901   33.3684 O   0  0  0  0  0  0  0  0  0  0  0  0
   10.9151   40.6883   31.9953 C   0  0  0  0  0  0  0  0  0  0  0  0
   11.5259   39.3872   31.4367 C   0  0  0  0  0  0  0  0  0  0  0  0
   12.7491   39.0894   32.0820 O   0  0  0  0  0  0  0  0  0  0  0  0
   10.6122   38.1894   31.6462 C   0  0  0  0  0  0  0  0  0  0  0  0
   12.9373   37.6828   32.0302 C   0  0  0  0  0  0  0  0  0  0  0  0
    9.6150   38.0839   30.6538 O   0  0  0  0  0  0  0  0  0  0  0  0
   11.5793   37.0137   31.7014 C   0  0  0  0  0  0  0  0  0  0  0  0
   13.4906   37.2170   33.3243 N   0  0  0  0  0  0  0  0  0  0  0  0
   11.6217   36.3253   30.4725 O   0  0  0  0  0  0  0  0  0  0  0  0
   14.4763   36.3267   33.5731 C   0  0  0  0  0  0  0  0  0  0  0  0
   13.1182   37.6310   34.5695 C   0  0  0  0  0  0  0  0  0  0  0  0
   15.2065   35.6137   32.6740 N   0  0  0  0  0  0  0  0  0  0  0  0
   14.6735   36.2270   34.9185 C   0  0  0  0  0  0  0  0  0  0  0  0
   13.8229   37.0451   35.5788 N   0  0  0  0  0  0  0  0  0  0  0  0
   16.1639   34.7593   33.1547 C   0  0  0  0  0  0  0  0  0  0  0  0
   15.6518   35.3489   35.4132 C   0  0  0  0  0  0  0  0  0  0  0  0
   16.3794   34.6308   34.5042 N   0  0  0  0  0  0  0  0  0  0  0  0
   15.9006   35.1931   36.8090 N   0  0  0  0  0  0  0  0  0  0  0  0
    9.8375   44.9924   32.1493 H   0  0  0  0  0  0  0  0  0  0  0  0
   10.8620   46.9412   33.0055 H   0  0  0  0  0  0  0  0  0  0  0  0
   11.1620   46.2342   34.5050 H   0  0  0  0  0  0  0  0  0  0  0  0
    7.7800   45.0694   33.3916 H   0  0  0  0  0  0  0  0  0  0  0  0
    8.4762   46.7116   33.4664 H   0  0  0  0  0  0  0  0  0  0  0  0
    9.7402   47.5193   37.8373 H   0  0  0  0  0  0  0  0  0  0  0  0
    8.4099   46.3291   37.9762 H   0  0  0  0  0  0  0  0  0  0  0  0
   12.0530   46.6234   36.9551 H   0  0  0  0  0  0  0  0  0  0  0  0
    8.9930   44.0733   38.6136 H   0  0  0  0  0  0  0  0  0  0  0  0
   13.7315   44.8575   37.3647 H   0  0  0  0  0  0  0  0  0  0  0  0
   10.6857   42.3242   39.0219 H   0  0  0  0  0  0  0  0  0  0  0  0
   13.0534   42.7077   38.3966 H   0  0  0  0  0  0  0  0  0  0  0  0
    9.8250   40.7180   31.7585 H   0  0  0  0  0  0  0  0  0  0  0  0
   11.3823   41.5505   31.4731 H   0  0  0  0  0  0  0  0  0  0  0  0
   11.7289   39.5290   30.3506 H   0  0  0  0  0  0  0  0  0  0  0  0
   10.1138   38.2718   32.6380 H   0  0  0  0  0  0  0  0  0  0  0  0
   13.6725   37.4638   31.2241 H   0  0  0  0  0  0  0  0  0  0  0  0
   10.0536   38.1086   29.7639 H   0  0  0  0  0  0  0  0  0  0  0  0
   11.2646   36.3135   32.5107 H   0  0  0  0  0  0  0  0  0  0  0  0
   12.1550   35.5033   30.6316 H   0  0  0  0  0  0  0  0  0  0  0  0
   12.3363   38.3588   34.7451 H   0  0  0  0  0  0  0  0  0  0  0  0
   16.7573   34.1789   32.4619 H   0  0  0  0  0  0  0  0  0  0  0  0
   16.6366   34.5314   37.1415 H   0  0  0  0  0  0  0  0  0  0  0  0
   15.3533   35.7354   37.5139 H   0  0  0  0  0  0  0  0  0  0  0  0
  1  2  2  0
  1  3  1  0
  3  4  1  0
  4  5  1  0
  6  1  1  0
  7  6  1  0
  6  8  1  0
  8  9  1  0
  9 10  1  0
  9 11  2  0
 10 12  1  0
 12 13  1  0
 13 14  2  0
 15 13  1  0
 14 16  1  0
 17 15  2  0
 16 18  2  0
 18 17  1  0
  4 19  2  0
  4 20  1  0
 21 20  1  0
 21 22  1  0
 22 23  1  0
 22 24  1  0
 23 25  1  0
 24 26  1  0
 24 27  1  0
 27 25  1  0
 25 28  1  0
 27 29  1  0
 30 28  1  0
 31 28  1  0
 32 30  2  0
 30 33  1  0
 34 31  2  0
 35 32  1  0
 33 36  2  0
 33 34  1  0
 37 35  2  0
 37 36  1  0
 36 38  1  0
  6 39  1  6
  7 40  1  0
  7 41  1  0
  8 42  1  0
  8 43  1  0
 12 44  1  0
 12 45  1  0
 14 46  1  0
 15 47  1  0
 16 48  1  0
 17 49  1  0
 18 50  1  0
 21 51  1  0
 21 52  1  0
 22 53  1  0
 24 54  1  0
 25 55  1  0
 26 56  1  0
 27 57  1  0
 29 58  1  0
 31 59  1  0
 35 60  1  0
 38 61  1  0
 38 62  1  0
M  CHG  1   5  -1
M  END
>  <EmbedRMS>  (42) 
0.08772540249359771

$$$$

     RDKit          3D

 62 65  0  0  0  0  0  0  0  0999 V2000
   10.2800   43.7765   33.8117 C   0  0  0  0  0  0  0  0  0  0  0  0
   11.4064   43.5922   34.3605 O   0  0  0  0  0  0  0  0  0  0  0  0
    9.3682   42.7299   33.7018 O   0  0  0  0  0  0  0  0  0  0  0  0
    9.8870   41.2332   34.2830 P   0  0  0  0  0  5  0  0  0  0  0  0
   10.3676   41.4680   35.8736 O   0  0  0  0  0  1  0  0  0  0  0  0
    9.9533   45.1158   33.2429 C   0  0  2  0  0  0  0  0  0  0  0  0
   11.0752   46.0258   33.4807 N   0  0  0  0  0  0  0  0  0  0  0  0
    8.6515   45.6978   33.8436 C   0  0  0  0  0  0  0  0  0  0  0  0
    7.4251   44.9129   33.4750 C   0  0  0  0  0  0  0  0  0  0  0  0
    7.3584   44.2537   32.2438 O   0  0  0  0  0  0  0  0  0  0  0  0
    6.4456   44.8849   34.2690 O   0  0  0  0  0  0  0  0  0  0  0  0
    6.2476   43.4550   31.8551 C   0  0  0  0  0  0  0  0  0  0  0  0
    6.5785   42.7501   30.5733 C   0  0  0  0  0  0  0  0  0  0  0  0
    7.1369   41.4613   30.5970 C   0  0  0  0  0  0  0  0  0  0  0  0
    6.4064   43.4045   29.3427 C   0  0  0  0  0  0  0  0  0  0  0  0
    7.4925   40.8269   29.4027 C   0  0  0  0  0  0  0  0  0  0  0  0
    6.7632   42.7663   28.1506 C   0  0  0  0  0  0  0  0  0  0  0  0
    7.3042   41.4779   28.1804 C   0  0  0  0  0  0  0  0  0  0  0  0
    8.8086   40.1913   34.2071 O   0  0  0  0  0  0  0  0  0  0  0  0
   11.2382   40.7910   33.3652 O   0  0  0  0  0  0  0  0  0  0  0  0
   10.9146   40.6852   31.9925 C   0  0  0  0  0  0  0  0  0  0  0  0
   11.5164   39.3774   31.4389 C   0  0  0  0  0  0  0  0  0  0  0  0
   12.7472   39.0855   32.0734 O   0  0  0  0  0  0  0  0  0  0  0  0
   10.6046   38.1869   31.6673 C   0  0  0  0  0  0  0  0  0  0  0  0
   12.9344   37.6791   32.0281 C   0  0  0  0  0  0  0  0  0  0  0  0
    9.6384   38.0908   30.6491 O   0  0  0  0  0  0  0  0  0  0  0  0
   11.5759   37.0131   31.7059 C   0  0  0  0  0  0  0  0  0  0  0  0
   13.4910   37.2179   33.3233 N   0  0  0  0  0  0  0  0  0  0  0  0
   11.6230   36.3371   30.4687 O   0  0  0  0  0  0  0  0  0  0  0  0
   14.4765   36.3273   33.5727 C   0  0  0  0  0  0  0  0  0  0  0  0
   13.1182   37.6317   34.5685 C   0  0  0  0  0  0  0  0  0  0  0  0
   15.2066   35.6138   32.6739 N   0  0  0  0  0  0  0  0  0  0  0  0
   14.6735   36.2276   34.9181 C   0  0  0  0  0  0  0  0  0  0  0  0
   13.8227   37.0458   35.5781 N   0  0  0  0  0  0  0  0  0  0  0  0
   16.1638   34.7593   33.1547 C   0  0  0  0  0  0  0  0  0  0  0  0
   15.6516   35.3493   35.4131 C   0  0  0  0  0  0  0  0  0  0  0  0
   16.3792   34.6310   34.5042 N   0  0  0  0  0  0  0  0  0  0  0  0
   15.9002   35.1934   36.8089 N   0  0  0  0  0  0  0  0  0  0  0  0
    9.8319   44.9982   32.1432 H   0  0  0  0  0  0  0  0  0  0  0  0
   11.1123   46.2815   34.4953 H   0  0  0  0  0  0  0  0  0  0  0  0
   10.9087   46.9089   32.9450 H   0  0  0  0  0  0  0  0  0  0  0  0
    8.7413   45.7436   34.9516 H   0  0  0  0  0  0  0  0  0  0  0  0
    8.5102   46.7356   33.4731 H   0  0  0  0  0  0  0  0  0  0  0  0
    5.3523   44.1002   31.7198 H   0  0  0  0  0  0  0  0  0  0  0  0
    6.0203   42.7118   32.6512 H   0  0  0  0  0  0  0  0  0  0  0  0
    7.2972   40.9493   31.5379 H   0  0  0  0  0  0  0  0  0  0  0  0
    5.9998   44.4077   29.3075 H   0  0  0  0  0  0  0  0  0  0  0  0
    7.9163   39.8320   29.4241 H   0  0  0  0  0  0  0  0  0  0  0  0
    6.6248   43.2724   27.2040 H   0  0  0  0  0  0  0  0  0  0  0  0
    7.5816   40.9859   27.2572 H   0  0  0  0  0  0  0  0  0  0  0  0
    9.8255   40.7206   31.7568 H   0  0  0  0  0  0  0  0  0  0  0  0
   11.3862   41.5419   31.4655 H   0  0  0  0  0  0  0  0  0  0  0  0
   11.6979   39.5011   30.3462 H   0  0  0  0  0  0  0  0  0  0  0  0
   10.1095   38.2780   32.6632 H   0  0  0  0  0  0  0  0  0  0  0  0
   13.6669   37.4542   31.2211 H   0  0  0  0  0  0  0  0  0  0  0  0
    8.9712   37.4247   30.9591 H   0  0  0  0  0  0  0  0  0  0  0  0
   11.2859   36.3044   32.5180 H   0  0  0  0  0  0  0  0  0  0  0  0
   10.8670   35.6937   30.4653 H   0  0  0  0  0  0  0  0  0  0  0  0
   12.3355   38.3588   34.7439 H   0  0  0  0  0  0  0  0  0  0  0  0
   16.7571   34.1786   32.4620 H   0  0  0  0  0  0  0  0  0  0  0  0
   16.6360   34.5315   37.1415 H   0  0  0  0  0  0  0  0  0  0  0  0
   15.3530   35.7358   37.5138 H   0  0  0  0  0  0  0  0  0  0  0  0
  1  2  2  0
  1  3  1  0
  3  4  1  0
  4  5  1  0
  6  1  1  0
  7  6  1  0
  6  8  1  0
  8  9  1  0
  9 10  1  0
  9 11  2  0
 10 12  1  0
 12 13  1  0
 13 14  2  0
 15 13  1  0
 14 16  1  0
 17 15  2  0
 16 18  2  0
 18 17  1  0
  4 19  2  0
  4 20  1  0
 21 20  1  0
 21 22  1  0
 22 23  1  0
 22 24  1  0
 23 25  1  0
 24 26  1  0
 24 27  1  0
 27 25  1  0
 25 28  1  0
 27 29  1  0
 30 28  1  0
 31 28  1  0
 32 30  2  0
 30 33  1  0
 34 31  2  0
 35 32  1  0
 33 36  2  0
 33 34  1  0
 37 35  2  0
 37 36  1  0
 36 38  1  0
  6 39  1  6
  7 40  1  0
  7 41  1  0
  8 42  1  0
  8 43  1  0
 12 44  1  0
 12 45  1  0
 14 46  1  0
 15 47  1  0
 16 48  1  0
 17 49  1  0
 18 50  1  0
 21 51  1  0
 21 52  1  0
 22 53  1  0
 24 54  1  0
 25 55  1  0
 26 56  1  0
 27 57  1  0
 29 58  1  0
 31 59  1  0
 35 60  1  0
 38 61  1  0
 38 62  1  0
M  CHG  1   5  -1
M  END
>  <EmbedRMS>  (43) 
0.0890959431677117

$$$$

     RDKit          3D

 62 65  0  0  0  0  0  0  0  0999 V2000
   10.2809   43.7761   33.8097 C   0  0  0  0  0  0  0  0  0  0  0  0
   11.4070   43.5919   34.3590 O   0  0  0  0  0  0  0  0  0  0  0  0
    9.3693   42.7296   33.6985 O   0  0  0  0  0  0  0  0  0  0  0  0
    9.8866   41.2339   34.2840 P   0  0  0  0  0  5  0  0  0  0  0  0
   10.3668   41.4701   35.8744 O   0  0  0  0  0  1  0  0  0  0  0  0
    9.9500   45.1175   33.2494 C   0  0  2  0  0  0  0  0  0  0  0  0
   11.0755   46.0253   33.4791 N   0  0  0  0  0  0  0  0  0  0  0  0
    8.6577   45.6940   33.8702 C   0  0  0  0  0  0  0  0  0  0  0  0
    7.4385   44.9421   33.4309 C   0  0  0  0  0  0  0  0  0  0  0  0
    6.8316   44.0406   34.3128 O   0  0  0  0  0  0  0  0  0  0  0  0
    6.9907   45.1035   32.2629 O   0  0  0  0  0  0  0  0  0  0  0  0
    5.6950   43.2522   33.9679 C   0  0  0  0  0  0  0  0  0  0  0  0
    4.4632   44.1118   33.8894 C   0  0  0  0  0  0  0  0  0  0  0  0
    3.8335   44.3513   32.6565 C   0  0  0  0  0  0  0  0  0  0  0  0
    3.9471   44.7042   35.0533 C   0  0  0  0  0  0  0  0  0  0  0  0
    2.6990   45.1665   32.5927 C   0  0  0  0  0  0  0  0  0  0  0  0
    2.8123   45.5186   34.9853 C   0  0  0  0  0  0  0  0  0  0  0  0
    2.1883   45.7491   33.7561 C   0  0  0  0  0  0  0  0  0  0  0  0
    8.8081   40.1919   34.2086 O   0  0  0  0  0  0  0  0  0  0  0  0
   11.2376   40.7903   33.3671 O   0  0  0  0  0  0  0  0  0  0  0  0
   10.9138   40.6859   31.9947 C   0  0  0  0  0  0  0  0  0  0  0  0
   11.5170   39.3797   31.4408 C   0  0  0  0  0  0  0  0  0  0  0  0
   12.7488   39.0885   32.0760 O   0  0  0  0  0  0  0  0  0  0  0  0
   10.6051   38.1876   31.6659 C   0  0  0  0  0  0  0  0  0  0  0  0
   12.9411   37.6828   32.0277 C   0  0  0  0  0  0  0  0  0  0  0  0
    9.6358   38.0930   30.6503 O   0  0  0  0  0  0  0  0  0  0  0  0
   11.5826   37.0179   31.6936 C   0  0  0  0  0  0  0  0  0  0  0  0
   13.4909   37.2176   33.3239 N   0  0  0  0  0  0  0  0  0  0  0  0
   11.6140   36.3180   30.4675 O   0  0  0  0  0  0  0  0  0  0  0  0
   14.4762   36.3270   33.5733 C   0  0  0  0  0  0  0  0  0  0  0  0
   13.1179   37.6316   34.5688 C   0  0  0  0  0  0  0  0  0  0  0  0
   15.2067   35.6140   32.6743 N   0  0  0  0  0  0  0  0  0  0  0  0
   14.6731   36.2272   34.9186 C   0  0  0  0  0  0  0  0  0  0  0  0
   13.8223   37.0456   35.5785 N   0  0  0  0  0  0  0  0  0  0  0  0
   16.1639   34.7595   33.1551 C   0  0  0  0  0  0  0  0  0  0  0  0
   15.6515   35.3491   35.4134 C   0  0  0  0  0  0  0  0  0  0  0  0
   16.3792   34.6310   34.5046 N   0  0  0  0  0  0  0  0  0  0  0  0
   15.9002   35.1934   36.8093 N   0  0  0  0  0  0  0  0  0  0  0  0
    9.8115   45.0038   32.1510 H   0  0  0  0  0  0  0  0  0  0  0  0
   11.1189   46.2822   34.4932 H   0  0  0  0  0  0  0  0  0  0  0  0
   10.9075   46.9080   32.9432 H   0  0  0  0  0  0  0  0  0  0  0  0
    8.7260   45.6757   34.9801 H   0  0  0  0  0  0  0  0  0  0  0  0
    8.5390   46.7554   33.5614 H   0  0  0  0  0  0  0  0  0  0  0  0
    5.8831   42.7150   33.0123 H   0  0  0  0  0  0  0  0  0  0  0  0
    5.5467   42.4817   34.7537 H   0  0  0  0  0  0  0  0  0  0  0  0
    4.2205   43.9106   31.7461 H   0  0  0  0  0  0  0  0  0  0  0  0
    4.4248   44.5361   36.0107 H   0  0  0  0  0  0  0  0  0  0  0  0
    2.2165   45.3479   31.6410 H   0  0  0  0  0  0  0  0  0  0  0  0
    2.4176   45.9722   35.8852 H   0  0  0  0  0  0  0  0  0  0  0  0
    1.3105   46.3802   33.7048 H   0  0  0  0  0  0  0  0  0  0  0  0
    9.8235   40.7209   31.7584 H   0  0  0  0  0  0  0  0  0  0  0  0
   11.3855   41.5433   31.4688 H   0  0  0  0  0  0  0  0  0  0  0  0
   11.6993   39.5065   30.3486 H   0  0  0  0  0  0  0  0  0  0  0  0
   10.1121   38.2723   32.6632 H   0  0  0  0  0  0  0  0  0  0  0  0
   13.6816   37.4630   31.2269 H   0  0  0  0  0  0  0  0  0  0  0  0
    9.0034   37.3831   30.9351 H   0  0  0  0  0  0  0  0  0  0  0  0
   11.2846   36.3040   32.4928 H   0  0  0  0  0  0  0  0  0  0  0  0
   11.8848   36.9590   29.7588 H   0  0  0  0  0  0  0  0  0  0  0  0
   12.3362   38.3598   34.7440 H   0  0  0  0  0  0  0  0  0  0  0  0
   16.7574   34.1790   32.4623 H   0  0  0  0  0  0  0  0  0  0  0  0
   16.6362   34.5317   37.1418 H   0  0  0  0  0  0  0  0  0  0  0  0
   15.3529   35.7356   37.5141 H   0  0  0  0  0  0  0  0  0  0  0  0
  1  2  2  0
  1  3  1  0
  3  4  1  0
  4  5  1  0
  6  1  1  0
  7  6  1  0
  6  8  1  0
  8  9  1  0
  9 10  1  0
  9 11  2  0
 10 12  1  0
 12 13  1  0
 13 14  2  0
 15 13  1  0
 14 16  1  0
 17 15  2  0
 16 18  2  0
 18 17  1  0
  4 19  2  0
  4 20  1  0
 21 20  1  0
 21 22  1  0
 22 23  1  0
 22 24  1  0
 23 25  1  0
 24 26  1  0
 24 27  1  0
 27 25  1  0
 25 28  1  0
 27 29  1  0
 30 28  1  0
 31 28  1  0
 32 30  2  0
 30 33  1  0
 34 31  2  0
 35 32  1  0
 33 36  2  0
 33 34  1  0
 37 35  2  0
 37 36  1  0
 36 38  1  0
  6 39  1  6
  7 40  1  0
  7 41  1  0
  8 42  1  0
  8 43  1  0
 12 44  1  0
 12 45  1  0
 14 46  1  0
 15 47  1  0
 16 48  1  0
 17 49  1  0
 18 50  1  0
 21 51  1  0
 21 52  1  0
 22 53  1  0
 24 54  1  0
 25 55  1  0
 26 56  1  0
 27 57  1  0
 29 58  1  0
 31 59  1  0
 35 60  1  0
 38 61  1  0
 38 62  1  0
M  CHG  1   5  -1
M  END
>  <EmbedRMS>  (44) 
0.08793409338020944

$$$$

     RDKit          3D

 62 65  0  0  0  0  0  0  0  0999 V2000
   10.2848   43.7726   33.8068 C   0  0  0  0  0  0  0  0  0  0  0  0
   11.4104   43.5874   34.3562 O   0  0  0  0  0  0  0  0  0  0  0  0
    9.3662   42.7315   33.7018 O   0  0  0  0  0  0  0  0  0  0  0  0
    9.8848   41.2345   34.2850 P   0  0  0  0  0  5  0  0  0  0  0  0
   10.3657   41.4699   35.8753 O   0  0  0  0  0  1  0  0  0  0  0  0
    9.9582   45.1108   33.2438 C   0  0  2  0  0  0  0  0  0  0  0  0
   11.0676   46.0366   33.4847 N   0  0  0  0  0  0  0  0  0  0  0  0
    8.6198   45.6582   33.7897 C   0  0  0  0  0  0  0  0  0  0  0  0
    8.6115   45.8102   35.2822 C   0  0  0  0  0  0  0  0  0  0  0  0
    8.9578   47.0411   35.8507 O   0  0  0  0  0  0  0  0  0  0  0  0
    8.3210   44.8223   36.0108 O   0  0  0  0  0  0  0  0  0  0  0  0
    8.9756   47.2761   37.2569 C   0  0  0  0  0  0  0  0  0  0  0  0
    7.5731   47.3281   37.7987 C   0  0  0  0  0  0  0  0  0  0  0  0
    6.7213   48.3845   37.4376 C   0  0  0  0  0  0  0  0  0  0  0  0
    7.0932   46.3136   38.6440 C   0  0  0  0  0  0  0  0  0  0  0  0
    5.4104   48.4293   37.9225 C   0  0  0  0  0  0  0  0  0  0  0  0
    5.7815   46.3620   39.1266 C   0  0  0  0  0  0  0  0  0  0  0  0
    4.9410   47.4192   38.7668 C   0  0  0  0  0  0  0  0  0  0  0  0
    8.8076   40.1913   34.2091 O   0  0  0  0  0  0  0  0  0  0  0  0
   11.2366   40.7909   33.3691 O   0  0  0  0  0  0  0  0  0  0  0  0
   10.9151   40.6898   31.9961 C   0  0  0  0  0  0  0  0  0  0  0  0
   11.5268   39.3899   31.4375 C   0  0  0  0  0  0  0  0  0  0  0  0
   12.7506   39.0917   32.0840 O   0  0  0  0  0  0  0  0  0  0  0  0
   10.6121   38.1915   31.6452 C   0  0  0  0  0  0  0  0  0  0  0  0
   12.9429   37.6854   32.0295 C   0  0  0  0  0  0  0  0  0  0  0  0
    9.6069   38.0858   30.6603 O   0  0  0  0  0  0  0  0  0  0  0  0
   11.5845   37.0186   31.6880 C   0  0  0  0  0  0  0  0  0  0  0  0
   13.4899   37.2164   33.3250 N   0  0  0  0  0  0  0  0  0  0  0  0
   11.6202   36.3063   30.4693 O   0  0  0  0  0  0  0  0  0  0  0  0
   14.4759   36.3263   33.5738 C   0  0  0  0  0  0  0  0  0  0  0  0
   13.1175   37.6307   34.5699 C   0  0  0  0  0  0  0  0  0  0  0  0
   15.2065   35.6139   32.6746 N   0  0  0  0  0  0  0  0  0  0  0  0
   14.6731   36.2267   34.9191 C   0  0  0  0  0  0  0  0  0  0  0  0
   13.8224   37.0450   35.5792 N   0  0  0  0  0  0  0  0  0  0  0  0
   16.1640   34.7596   33.1551 C   0  0  0  0  0  0  0  0  0  0  0  0
   15.6517   35.3489   35.4136 C   0  0  0  0  0  0  0  0  0  0  0  0
   16.3795   34.6310   34.5046 N   0  0  0  0  0  0  0  0  0  0  0  0
   15.9006   35.1931   36.8094 N   0  0  0  0  0  0  0  0  0  0  0  0
    9.8486   44.9836   32.1445 H   0  0  0  0  0  0  0  0  0  0  0  0
   11.1597   46.2308   34.5084 H   0  0  0  0  0  0  0  0  0  0  0  0
   10.8538   46.9455   33.0131 H   0  0  0  0  0  0  0  0  0  0  0  0
    8.4106   46.6458   33.3250 H   0  0  0  0  0  0  0  0  0  0  0  0
    7.7916   44.9799   33.4887 H   0  0  0  0  0  0  0  0  0  0  0  0
    9.4712   48.2514   37.4472 H   0  0  0  0  0  0  0  0  0  0  0  0
    9.5826   46.4941   37.7638 H   0  0  0  0  0  0  0  0  0  0  0  0
    7.0727   49.1703   36.7802 H   0  0  0  0  0  0  0  0  0  0  0  0
    7.7311   45.4856   38.9273 H   0  0  0  0  0  0  0  0  0  0  0  0
    4.7579   49.2461   37.6422 H   0  0  0  0  0  0  0  0  0  0  0  0
    5.4160   45.5788   39.7781 H   0  0  0  0  0  0  0  0  0  0  0  0
    3.9259   47.4547   39.1407 H   0  0  0  0  0  0  0  0  0  0  0  0
    9.8249   40.7189   31.7591 H   0  0  0  0  0  0  0  0  0  0  0  0
   11.3817   41.5527   31.4745 H   0  0  0  0  0  0  0  0  0  0  0  0
   11.7317   39.5339   30.3522 H   0  0  0  0  0  0  0  0  0  0  0  0
   10.1213   38.2681   32.6413 H   0  0  0  0  0  0  0  0  0  0  0  0
   13.6882   37.4710   31.2319 H   0  0  0  0  0  0  0  0  0  0  0  0
   10.0257   38.1751   29.7656 H   0  0  0  0  0  0  0  0  0  0  0  0
   11.2796   36.3124   32.4916 H   0  0  0  0  0  0  0  0  0  0  0  0
   11.9872   36.9100   29.7715 H   0  0  0  0  0  0  0  0  0  0  0  0
   12.3365   38.3595   34.7454 H   0  0  0  0  0  0  0  0  0  0  0  0
   16.7576   34.1794   32.4622 H   0  0  0  0  0  0  0  0  0  0  0  0
   15.3532   35.7351   37.5143 H   0  0  0  0  0  0  0  0  0  0  0  0
   16.6368   34.5316   37.1418 H   0  0  0  0  0  0  0  0  0  0  0  0
  1  2  2  0
  1  3  1  0
  3  4  1  0
  4  5  1  0
  6  1  1  0
  7  6  1  0
  6  8  1  0
  8  9  1  0
  9 10  1  0
  9 11  2  0
 10 12  1  0
 12 13  1  0
 13 14  2  0
 15 13  1  0
 14 16  1  0
 17 15  2  0
 16 18  2  0
 18 17  1  0
  4 19  2  0
  4 20  1  0
 21 20  1  0
 21 22  1  0
 22 23  1  0
 22 24  1  0
 23 25  1  0
 24 26  1  0
 24 27  1  0
 27 25  1  0
 25 28  1  0
 27 29  1  0
 30 28  1  0
 31 28  1  0
 32 30  2  0
 30 33  1  0
 34 31  2  0
 35 32  1  0
 33 36  2  0
 33 34  1  0
 37 35  2  0
 37 36  1  0
 36 38  1  0
  6 39  1  6
  7 40  1  0
  7 41  1  0
  8 42  1  0
  8 43  1  0
 12 44  1  0
 12 45  1  0
 14 46  1  0
 15 47  1  0
 16 48  1  0
 17 49  1  0
 18 50  1  0
 21 51  1  0
 21 52  1  0
 22 53  1  0
 24 54  1  0
 25 55  1  0
 26 56  1  0
 27 57  1  0
 29 58  1  0
 31 59  1  0
 35 60  1  0
 38 61  1  0
 38 62  1  0
M  CHG  1   5  -1
M  END
>  <EmbedRMS>  (45) 
0.08687055710015959

$$$$

     RDKit          3D

 62 65  0  0  0  0  0  0  0  0999 V2000
   10.2872   43.7715   33.8026 C   0  0  0  0  0  0  0  0  0  0  0  0
   11.4091   43.5882   34.3604 O   0  0  0  0  0  0  0  0  0  0  0  0
    9.3679   42.7308   33.6992 O   0  0  0  0  0  0  0  0  0  0  0  0
    9.8852   41.2341   34.2846 P   0  0  0  0  0  5  0  0  0  0  0  0
   10.3664   41.4691   35.8742 O   0  0  0  0  0  1  0  0  0  0  0  0
    9.9539   45.1146   33.2512 C   0  0  2  0  0  0  0  0  0  0  0  0
   11.0693   46.0350   33.4802 N   0  0  0  0  0  0  0  0  0  0  0  0
    8.6563   45.6647   33.8786 C   0  0  0  0  0  0  0  0  0  0  0  0
    8.7836   45.8847   35.3575 C   0  0  0  0  0  0  0  0  0  0  0  0
    8.7842   44.7824   36.2162 O   0  0  0  0  0  0  0  0  0  0  0  0
    8.9146   47.0545   35.8107 O   0  0  0  0  0  0  0  0  0  0  0  0
    8.8990   44.9022   37.6291 C   0  0  0  0  0  0  0  0  0  0  0  0
    8.9724   43.5303   38.2329 C   0  0  0  0  0  0  0  0  0  0  0  0
    7.8350   42.7066   38.2402 C   0  0  0  0  0  0  0  0  0  0  0  0
   10.1846   43.0362   38.7437 C   0  0  0  0  0  0  0  0  0  0  0  0
    7.9066   41.4117   38.7633 C   0  0  0  0  0  0  0  0  0  0  0  0
   10.2513   41.7413   39.2679 C   0  0  0  0  0  0  0  0  0  0  0  0
    9.1134   40.9298   39.2779 C   0  0  0  0  0  0  0  0  0  0  0  0
    8.8077   40.1914   34.2090 O   0  0  0  0  0  0  0  0  0  0  0  0
   11.2378   40.7900   33.3699 O   0  0  0  0  0  0  0  0  0  0  0  0
   10.9187   40.6904   31.9964 C   0  0  0  0  0  0  0  0  0  0  0  0
   11.5174   39.3824   31.4412 C   0  0  0  0  0  0  0  0  0  0  0  0
   12.7494   39.0893   32.0756 O   0  0  0  0  0  0  0  0  0  0  0  0
   10.6036   38.1899   31.6660 C   0  0  0  0  0  0  0  0  0  0  0  0
   12.9400   37.6834   32.0276 C   0  0  0  0  0  0  0  0  0  0  0  0
    9.6376   38.0785   30.6475 O   0  0  0  0  0  0  0  0  0  0  0  0
   11.5803   37.0204   31.6937 C   0  0  0  0  0  0  0  0  0  0  0  0
   13.4901   37.2178   33.3238 N   0  0  0  0  0  0  0  0  0  0  0  0
   11.6117   36.3193   30.4680 O   0  0  0  0  0  0  0  0  0  0  0  0
   14.4758   36.3272   33.5731 C   0  0  0  0  0  0  0  0  0  0  0  0
   13.1175   37.6318   34.5689 C   0  0  0  0  0  0  0  0  0  0  0  0
   15.2064   35.6142   32.6742 N   0  0  0  0  0  0  0  0  0  0  0  0
   14.6729   36.2275   34.9185 C   0  0  0  0  0  0  0  0  0  0  0  0
   13.8221   37.0458   35.5784 N   0  0  0  0  0  0  0  0  0  0  0  0
   16.1637   34.7597   33.1549 C   0  0  0  0  0  0  0  0  0  0  0  0
   15.6513   35.3493   35.4133 C   0  0  0  0  0  0  0  0  0  0  0  0
   16.3791   34.6312   34.5044 N   0  0  0  0  0  0  0  0  0  0  0  0
   15.9001   35.1935   36.8091 N   0  0  0  0  0  0  0  0  0  0  0  0
    9.7904   45.0045   32.1555 H   0  0  0  0  0  0  0  0  0  0  0  0
   11.8835   45.7170   32.9045 H   0  0  0  0  0  0  0  0  0  0  0  0
   10.8072   46.9734   33.0993 H   0  0  0  0  0  0  0  0  0  0  0  0
    7.8190   44.9580   33.6912 H   0  0  0  0  0  0  0  0  0  0  0  0
    8.3859   46.6223   33.3821 H   0  0  0  0  0  0  0  0  0  0  0  0
    8.0128   45.4397   38.0311 H   0  0  0  0  0  0  0  0  0  0  0  0
    9.8074   45.4918   37.8828 H   0  0  0  0  0  0  0  0  0  0  0  0
    6.8967   43.0659   37.8358 H   0  0  0  0  0  0  0  0  0  0  0  0
   11.0778   43.6484   38.7315 H   0  0  0  0  0  0  0  0  0  0  0  0
    7.0273   40.7806   38.7665 H   0  0  0  0  0  0  0  0  0  0  0  0
   11.1868   41.3647   39.6610 H   0  0  0  0  0  0  0  0  0  0  0  0
    9.1676   39.9268   39.6807 H   0  0  0  0  0  0  0  0  0  0  0  0
    9.8308   40.7395   31.7562 H   0  0  0  0  0  0  0  0  0  0  0  0
   11.3997   41.5455   31.4751 H   0  0  0  0  0  0  0  0  0  0  0  0
   11.6988   39.5092   30.3490 H   0  0  0  0  0  0  0  0  0  0  0  0
   10.1130   38.2589   32.6664 H   0  0  0  0  0  0  0  0  0  0  0  0
   13.6800   37.4627   31.2266 H   0  0  0  0  0  0  0  0  0  0  0  0
    8.8951   38.6907   30.8893 H   0  0  0  0  0  0  0  0  0  0  0  0
   11.2830   36.3060   32.4929 H   0  0  0  0  0  0  0  0  0  0  0  0
   11.8859   36.9589   29.7593 H   0  0  0  0  0  0  0  0  0  0  0  0
   12.3359   38.3601   34.7443 H   0  0  0  0  0  0  0  0  0  0  0  0
   16.7572   34.1793   32.4621 H   0  0  0  0  0  0  0  0  0  0  0  0
   15.3528   35.7357   37.5140 H   0  0  0  0  0  0  0  0  0  0  0  0
   16.6361   34.5318   37.1416 H   0  0  0  0  0  0  0  0  0  0  0  0
  1  2  2  0
  1  3  1  0
  3  4  1  0
  4  5  1  0
  6  1  1  0
  7  6  1  0
  6  8  1  0
  8  9  1  0
  9 10  1  0
  9 11  2  0
 10 12  1  0
 12 13  1  0
 13 14  2  0
 15 13  1  0
 14 16  1  0
 17 15  2  0
 16 18  2  0
 18 17  1  0
  4 19  2  0
  4 20  1  0
 21 20  1  0
 21 22  1  0
 22 23  1  0
 22 24  1  0
 23 25  1  0
 24 26  1  0
 24 27  1  0
 27 25  1  0
 25 28  1  0
 27 29  1  0
 30 28  1  0
 31 28  1  0
 32 30  2  0
 30 33  1  0
 34 31  2  0
 35 32  1  0
 33 36  2  0
 33 34  1  0
 37 35  2  0
 37 36  1  0
 36 38  1  0
  6 39  1  6
  7 40  1  0
  7 41  1  0
  8 42  1  0
  8 43  1  0
 12 44  1  0
 12 45  1  0
 14 46  1  0
 15 47  1  0
 16 48  1  0
 17 49  1  0
 18 50  1  0
 21 51  1  0
 21 52  1  0
 22 53  1  0
 24 54  1  0
 25 55  1  0
 26 56  1  0
 27 57  1  0
 29 58  1  0
 31 59  1  0
 35 60  1  0
 38 61  1  0
 38 62  1  0
M  CHG  1   5  -1
M  END
>  <EmbedRMS>  (46) 
0.08834928665724756

$$$$

     RDKit          3D

 62 65  0  0  0  0  0  0  0  0999 V2000
   10.2828   43.7755   33.8079 C   0  0  0  0  0  0  0  0  0  0  0  0
   11.4085   43.5914   34.3580 O   0  0  0  0  0  0  0  0  0  0  0  0
    9.3666   42.7319   33.7014 O   0  0  0  0  0  0  0  0  0  0  0  0
    9.8863   41.2345   34.2833 P   0  0  0  0  0  5  0  0  0  0  0  0
   10.3676   41.4691   35.8737 O   0  0  0  0  0  1  0  0  0  0  0  0
    9.9543   45.1112   33.2422 C   0  0  2  0  0  0  0  0  0  0  0  0
   11.0720   46.0272   33.4852 N   0  0  0  0  0  0  0  0  0  0  0  0
    8.6393   45.6445   33.8490 C   0  0  0  0  0  0  0  0  0  0  0  0
    8.2205   46.9282   33.2021 C   0  0  0  0  0  0  0  0  0  0  0  0
    7.7279   46.9079   31.8946 O   0  0  0  0  0  0  0  0  0  0  0  0
    8.3410   48.0164   33.8286 O   0  0  0  0  0  0  0  0  0  0  0  0
    7.3443   48.0889   31.1997 C   0  0  0  0  0  0  0  0  0  0  0  0
    6.8889   47.7220   29.8181 C   0  0  0  0  0  0  0  0  0  0  0  0
    5.5380   47.4264   29.5716 C   0  0  0  0  0  0  0  0  0  0  0  0
    7.8219   47.6029   28.7749 C   0  0  0  0  0  0  0  0  0  0  0  0
    5.1231   47.0462   28.2912 C   0  0  0  0  0  0  0  0  0  0  0  0
    7.4030   47.2222   27.4960 C   0  0  0  0  0  0  0  0  0  0  0  0
    6.0544   46.9466   27.2537 C   0  0  0  0  0  0  0  0  0  0  0  0
    8.8086   40.1917   34.2083 O   0  0  0  0  0  0  0  0  0  0  0  0
   11.2376   40.7913   33.3656 O   0  0  0  0  0  0  0  0  0  0  0  0
   10.9141   40.6852   31.9930 C   0  0  0  0  0  0  0  0  0  0  0  0
   11.5165   39.3774   31.4394 C   0  0  0  0  0  0  0  0  0  0  0  0
   12.7471   39.0855   32.0740 O   0  0  0  0  0  0  0  0  0  0  0  0
   10.6047   38.1868   31.6670 C   0  0  0  0  0  0  0  0  0  0  0  0
   12.9345   37.6791   32.0282 C   0  0  0  0  0  0  0  0  0  0  0  0
    9.6378   38.0918   30.6489 O   0  0  0  0  0  0  0  0  0  0  0  0
   11.5761   37.0129   31.7057 C   0  0  0  0  0  0  0  0  0  0  0  0
   13.4909   37.2177   33.3233 N   0  0  0  0  0  0  0  0  0  0  0  0
   11.6234   36.3371   30.4684 O   0  0  0  0  0  0  0  0  0  0  0  0
   14.4765   36.3272   33.5727 C   0  0  0  0  0  0  0  0  0  0  0  0
   13.1182   37.6316   34.5685 C   0  0  0  0  0  0  0  0  0  0  0  0
   15.2066   35.6138   32.6739 N   0  0  0  0  0  0  0  0  0  0  0  0
   14.6736   36.2276   34.9182 C   0  0  0  0  0  0  0  0  0  0  0  0
   13.8227   37.0457   35.5781 N   0  0  0  0  0  0  0  0  0  0  0  0
   16.1638   34.7593   33.1547 C   0  0  0  0  0  0  0  0  0  0  0  0
   15.6517   35.3492   35.4131 C   0  0  0  0  0  0  0  0  0  0  0  0
   16.3792   34.6309   34.5042 N   0  0  0  0  0  0  0  0  0  0  0  0
   15.9003   35.1934   36.8089 N   0  0  0  0  0  0  0  0  0  0  0  0
    9.8250   44.9832   32.1441 H   0  0  0  0  0  0  0  0  0  0  0  0
   10.9379   46.8881   32.9068 H   0  0  0  0  0  0  0  0  0  0  0  0
   11.0778   46.3207   34.4900 H   0  0  0  0  0  0  0  0  0  0  0  0
    7.8256   44.9036   33.6920 H   0  0  0  0  0  0  0  0  0  0  0  0
    8.7533   45.7906   34.9461 H   0  0  0  0  0  0  0  0  0  0  0  0
    6.5254   48.5998   31.7522 H   0  0  0  0  0  0  0  0  0  0  0  0
    8.2079   48.7875   31.1423 H   0  0  0  0  0  0  0  0  0  0  0  0
    4.8079   47.4896   30.3691 H   0  0  0  0  0  0  0  0  0  0  0  0
    8.8714   47.8035   28.9522 H   0  0  0  0  0  0  0  0  0  0  0  0
    4.0803   46.8247   28.1044 H   0  0  0  0  0  0  0  0  0  0  0  0
    8.1246   47.1371   26.6938 H   0  0  0  0  0  0  0  0  0  0  0  0
    5.7320   46.6506   26.2638 H   0  0  0  0  0  0  0  0  0  0  0  0
   11.3866   41.5416   31.4661 H   0  0  0  0  0  0  0  0  0  0  0  0
    9.8240   40.7211   31.7568 H   0  0  0  0  0  0  0  0  0  0  0  0
   11.6987   39.5012   30.3468 H   0  0  0  0  0  0  0  0  0  0  0  0
   10.1095   38.2771   32.6629 H   0  0  0  0  0  0  0  0  0  0  0  0
   13.6672   37.4546   31.2213 H   0  0  0  0  0  0  0  0  0  0  0  0
    8.9779   37.4158   30.9534 H   0  0  0  0  0  0  0  0  0  0  0  0
   11.2861   36.3041   32.5177 H   0  0  0  0  0  0  0  0  0  0  0  0
   10.8690   35.6919   30.4657 H   0  0  0  0  0  0  0  0  0  0  0  0
   12.3356   38.3587   34.7440 H   0  0  0  0  0  0  0  0  0  0  0  0
   16.7572   34.1786   32.4621 H   0  0  0  0  0  0  0  0  0  0  0  0
   15.3530   35.7358   37.5138 H   0  0  0  0  0  0  0  0  0  0  0  0
   16.6361   34.5315   37.1415 H   0  0  0  0  0  0  0  0  0  0  0  0
  1  2  2  0
  1  3  1  0
  3  4  1  0
  4  5  1  0
  6  1  1  0
  7  6  1  0
  6  8  1  0
  8  9  1  0
  9 10  1  0
  9 11  2  0
 10 12  1  0
 12 13  1  0
 13 14  2  0
 15 13  1  0
 14 16  1  0
 17 15  2  0
 16 18  2  0
 18 17  1  0
  4 19  2  0
  4 20  1  0
 21 20  1  0
 21 22  1  0
 22 23  1  0
 22 24  1  0
 23 25  1  0
 24 26  1  0
 24 27  1  0
 27 25  1  0
 25 28  1  0
 27 29  1  0
 30 28  1  0
 31 28  1  0
 32 30  2  0
 30 33  1  0
 34 31  2  0
 35 32  1  0
 33 36  2  0
 33 34  1  0
 37 35  2  0
 37 36  1  0
 36 38  1  0
  6 39  1  6
  7 40  1  0
  7 41  1  0
  8 42  1  0
  8 43  1  0
 12 44  1  0
 12 45  1  0
 14 46  1  0
 15 47  1  0
 16 48  1  0
 17 49  1  0
 18 50  1  0
 21 51  1  0
 21 52  1  0
 22 53  1  0
 24 54  1  0
 25 55  1  0
 26 56  1  0
 27 57  1  0
 29 58  1  0
 31 59  1  0
 35 60  1  0
 38 61  1  0
 38 62  1  0
M  CHG  1   5  -1
M  END
>  <EmbedRMS>  (47) 
0.08871843532596092

$$$$

     RDKit          3D

 62 65  0  0  0  0  0  0  0  0999 V2000
   10.2847   43.7733   33.8089 C   0  0  0  0  0  0  0  0  0  0  0  0
   11.4111   43.5878   34.3562 O   0  0  0  0  0  0  0  0  0  0  0  0
    9.3664   42.7319   33.7036 O   0  0  0  0  0  0  0  0  0  0  0  0
    9.8851   41.2340   34.2845 P   0  0  0  0  0  5  0  0  0  0  0  0
   10.3654   41.4662   35.8749 O   0  0  0  0  0  1  0  0  0  0  0  0
    9.9587   45.1101   33.2424 C   0  0  2  0  0  0  0  0  0  0  0  0
   11.0674   46.0375   33.4826 N   0  0  0  0  0  0  0  0  0  0  0  0
    8.6169   45.6578   33.7813 C   0  0  0  0  0  0  0  0  0  0  0  0
    8.6478   45.9342   35.2554 C   0  0  0  0  0  0  0  0  0  0  0  0
    8.6999   44.8666   36.1586 O   0  0  0  0  0  0  0  0  0  0  0  0
    8.6526   47.1265   35.6671 O   0  0  0  0  0  0  0  0  0  0  0  0
    8.9024   45.0382   37.5593 C   0  0  0  0  0  0  0  0  0  0  0  0
   10.3083   45.5022   37.8288 C   0  0  0  0  0  0  0  0  0  0  0  0
   10.5607   46.8210   38.2426 C   0  0  0  0  0  0  0  0  0  0  0  0
   11.3871   44.6287   37.6184 C   0  0  0  0  0  0  0  0  0  0  0  0
   11.8742   47.2542   38.4495 C   0  0  0  0  0  0  0  0  0  0  0  0
   12.6989   45.0658   37.8248 C   0  0  0  0  0  0  0  0  0  0  0  0
   12.9424   46.3775   38.2407 C   0  0  0  0  0  0  0  0  0  0  0  0
    8.8075   40.1914   34.2078 O   0  0  0  0  0  0  0  0  0  0  0  0
   11.2369   40.7909   33.3680 O   0  0  0  0  0  0  0  0  0  0  0  0
   10.9149   40.6884   31.9950 C   0  0  0  0  0  0  0  0  0  0  0  0
   11.5259   39.3872   31.4367 C   0  0  0  0  0  0  0  0  0  0  0  0
   12.7490   39.0895   32.0821 O   0  0  0  0  0  0  0  0  0  0  0  0
   10.6122   38.1894   31.6462 C   0  0  0  0  0  0  0  0  0  0  0  0
   12.9373   37.6829   32.0302 C   0  0  0  0  0  0  0  0  0  0  0  0
    9.6150   38.0839   30.6538 O   0  0  0  0  0  0  0  0  0  0  0  0
   11.5793   37.0137   31.7014 C   0  0  0  0  0  0  0  0  0  0  0  0
   13.4906   37.2170   33.3243 N   0  0  0  0  0  0  0  0  0  0  0  0
   11.6217   36.3253   30.4725 O   0  0  0  0  0  0  0  0  0  0  0  0
   14.4763   36.3267   33.5731 C   0  0  0  0  0  0  0  0  0  0  0  0
   13.1182   37.6309   34.5695 C   0  0  0  0  0  0  0  0  0  0  0  0
   15.2065   35.6137   32.6740 N   0  0  0  0  0  0  0  0  0  0  0  0
   14.6735   36.2270   34.9185 C   0  0  0  0  0  0  0  0  0  0  0  0
   13.8229   37.0451   35.5788 N   0  0  0  0  0  0  0  0  0  0  0  0
   16.1639   34.7593   33.1547 C   0  0  0  0  0  0  0  0  0  0  0  0
   15.6518   35.3489   35.4132 C   0  0  0  0  0  0  0  0  0  0  0  0
   16.3794   34.6308   34.5042 N   0  0  0  0  0  0  0  0  0  0  0  0
   15.9006   35.1931   36.8090 N   0  0  0  0  0  0  0  0  0  0  0  0
    9.8520   44.9778   32.1434 H   0  0  0  0  0  0  0  0  0  0  0  0
   10.8462   46.9500   33.0215 H   0  0  0  0  0  0  0  0  0  0  0  0
   11.1698   46.2228   34.5074 H   0  0  0  0  0  0  0  0  0  0  0  0
    7.8030   44.9309   33.5710 H   0  0  0  0  0  0  0  0  0  0  0  0
    8.3626   46.5923   33.2348 H   0  0  0  0  0  0  0  0  0  0  0  0
    8.7399   44.0623   38.0638 H   0  0  0  0  0  0  0  0  0  0  0  0
    8.1515   45.7501   37.9669 H   0  0  0  0  0  0  0  0  0  0  0  0
    9.7438   47.5143   38.3995 H   0  0  0  0  0  0  0  0  0  0  0  0
   11.2116   43.6124   37.2915 H   0  0  0  0  0  0  0  0  0  0  0  0
   12.0641   48.2710   38.7682 H   0  0  0  0  0  0  0  0  0  0  0  0
   13.5266   44.3882   37.6600 H   0  0  0  0  0  0  0  0  0  0  0  0
   13.9585   46.7151   38.3992 H   0  0  0  0  0  0  0  0  0  0  0  0
    9.8247   40.7180   31.7584 H   0  0  0  0  0  0  0  0  0  0  0  0
   11.3818   41.5505   31.4724 H   0  0  0  0  0  0  0  0  0  0  0  0
   11.7289   39.5289   30.3506 H   0  0  0  0  0  0  0  0  0  0  0  0
   10.1138   38.2718   32.6380 H   0  0  0  0  0  0  0  0  0  0  0  0
   13.6725   37.4639   31.2241 H   0  0  0  0  0  0  0  0  0  0  0  0
   10.0536   38.1086   29.7639 H   0  0  0  0  0  0  0  0  0  0  0  0
   11.2646   36.3135   32.5107 H   0  0  0  0  0  0  0  0  0  0  0  0
   12.1551   35.5034   30.6316 H   0  0  0  0  0  0  0  0  0  0  0  0
   12.3363   38.3588   34.7451 H   0  0  0  0  0  0  0  0  0  0  0  0
   16.7573   34.1788   32.4619 H   0  0  0  0  0  0  0  0  0  0  0  0
   16.6366   34.5314   37.1415 H   0  0  0  0  0  0  0  0  0  0  0  0
   15.3533   35.7353   37.5139 H   0  0  0  0  0  0  0  0  0  0  0  0
  1  2  2  0
  1  3  1  0
  3  4  1  0
  4  5  1  0
  6  1  1  0
  7  6  1  0
  6  8  1  0
  8  9  1  0
  9 10  1  0
  9 11  2  0
 10 12  1  0
 12 13  1  0
 13 14  2  0
 15 13  1  0
 14 16  1  0
 17 15  2  0
 16 18  2  0
 18 17  1  0
  4 19  2  0
  4 20  1  0
 21 20  1  0
 21 22  1  0
 22 23  1  0
 22 24  1  0
 23 25  1  0
 24 26  1  0
 24 27  1  0
 27 25  1  0
 25 28  1  0
 27 29  1  0
 30 28  1  0
 31 28  1  0
 32 30  2  0
 30 33  1  0
 34 31  2  0
 35 32  1  0
 33 36  2  0
 33 34  1  0
 37 35  2  0
 37 36  1  0
 36 38  1  0
  6 39  1  6
  7 40  1  0
  7 41  1  0
  8 42  1  0
  8 43  1  0
 12 44  1  0
 12 45  1  0
 14 46  1  0
 15 47  1  0
 16 48  1  0
 17 49  1  0
 18 50  1  0
 21 51  1  0
 21 52  1  0
 22 53  1  0
 24 54  1  0
 25 55  1  0
 26 56  1  0
 27 57  1  0
 29 58  1  0
 31 59  1  0
 35 60  1  0
 38 61  1  0
 38 62  1  0
M  CHG  1   5  -1
M  END
>  <EmbedRMS>  (48) 
0.08803921892842917

$$$$

     RDKit          3D

 62 65  0  0  0  0  0  0  0  0999 V2000
   10.2884   43.7679   33.8062 C   0  0  0  0  0  0  0  0  0  0  0  0
   11.4118   43.5785   34.3585 O   0  0  0  0  0  0  0  0  0  0  0  0
    9.3664   42.7304   33.7010 O   0  0  0  0  0  0  0  0  0  0  0  0
    9.8836   41.2331   34.2850 P   0  0  0  0  0  5  0  0  0  0  0  0
   10.3645   41.4685   35.8751 O   0  0  0  0  0  1  0  0  0  0  0  0
    9.9614   45.1138   33.2515 C   0  0  2  0  0  0  0  0  0  0  0  0
   11.0634   46.0527   33.4753 N   0  0  0  0  0  0  0  0  0  0  0  0
    8.6452   45.6746   33.8281 C   0  0  0  0  0  0  0  0  0  0  0  0
    8.6156   45.6610   35.3284 C   0  0  0  0  0  0  0  0  0  0  0  0
    9.3020   46.6476   36.0443 O   0  0  0  0  0  0  0  0  0  0  0  0
    8.0083   44.7343   35.9315 O   0  0  0  0  0  0  0  0  0  0  0  0
    9.5321   46.5708   37.4493 C   0  0  0  0  0  0  0  0  0  0  0  0
   10.5176   45.4744   37.7525 C   0  0  0  0  0  0  0  0  0  0  0  0
   10.0934   44.2741   38.3470 C   0  0  0  0  0  0  0  0  0  0  0  0
   11.8649   45.6219   37.3849 C   0  0  0  0  0  0  0  0  0  0  0  0
   11.0078   43.2416   38.5777 C   0  0  0  0  0  0  0  0  0  0  0  0
   12.7751   44.5855   37.6136 C   0  0  0  0  0  0  0  0  0  0  0  0
   12.3471   43.3963   38.2097 C   0  0  0  0  0  0  0  0  0  0  0  0
    8.8062   40.1904   34.2088 O   0  0  0  0  0  0  0  0  0  0  0  0
   11.2358   40.7896   33.3696 O   0  0  0  0  0  0  0  0  0  0  0  0
   10.9152   40.6897   31.9964 C   0  0  0  0  0  0  0  0  0  0  0  0
   11.5268   39.3899   31.4376 C   0  0  0  0  0  0  0  0  0  0  0  0
   12.7507   39.0918   32.0839 O   0  0  0  0  0  0  0  0  0  0  0  0
   10.6122   38.1916   31.6453 C   0  0  0  0  0  0  0  0  0  0  0  0
   12.9429   37.6854   32.0295 C   0  0  0  0  0  0  0  0  0  0  0  0
    9.6070   38.0858   30.6603 O   0  0  0  0  0  0  0  0  0  0  0  0
   11.5845   37.0186   31.6880 C   0  0  0  0  0  0  0  0  0  0  0  0
   13.4899   37.2164   33.3250 N   0  0  0  0  0  0  0  0  0  0  0  0
   11.6202   36.3063   30.4693 O   0  0  0  0  0  0  0  0  0  0  0  0
   14.4759   36.3264   33.5739 C   0  0  0  0  0  0  0  0  0  0  0  0
   13.1176   37.6308   34.5699 C   0  0  0  0  0  0  0  0  0  0  0  0
   15.2065   35.6139   32.6746 N   0  0  0  0  0  0  0  0  0  0  0  0
   14.6731   36.2268   34.9191 C   0  0  0  0  0  0  0  0  0  0  0  0
   13.8224   37.0451   35.5792 N   0  0  0  0  0  0  0  0  0  0  0  0
   16.1640   34.7596   33.1551 C   0  0  0  0  0  0  0  0  0  0  0  0
   15.6517   35.3489   35.4136 C   0  0  0  0  0  0  0  0  0  0  0  0
   16.3795   34.6310   34.5046 N   0  0  0  0  0  0  0  0  0  0  0  0
   15.9005   35.1931   36.8094 N   0  0  0  0  0  0  0  0  0  0  0  0
    9.8229   45.0002   32.1537 H   0  0  0  0  0  0  0  0  0  0  0  0
   11.9051   45.7267   32.9456 H   0  0  0  0  0  0  0  0  0  0  0  0
   11.3159   46.0890   34.4892 H   0  0  0  0  0  0  0  0  0  0  0  0
    7.7915   45.0768   33.4394 H   0  0  0  0  0  0  0  0  0  0  0  0
    8.5009   46.7177   33.4729 H   0  0  0  0  0  0  0  0  0  0  0  0
    8.5698   46.4153   37.9847 H   0  0  0  0  0  0  0  0  0  0  0  0
    9.9494   47.5400   37.7951 H   0  0  0  0  0  0  0  0  0  0  0  0
    9.0563   44.1344   38.6251 H   0  0  0  0  0  0  0  0  0  0  0  0
   12.2066   46.5355   36.9144 H   0  0  0  0  0  0  0  0  0  0  0  0
   10.6763   42.3182   39.0346 H   0  0  0  0  0  0  0  0  0  0  0  0
   13.8116   44.7030   37.3250 H   0  0  0  0  0  0  0  0  0  0  0  0
   13.0521   42.5939   38.3838 H   0  0  0  0  0  0  0  0  0  0  0  0
   11.3825   41.5528   31.4758 H   0  0  0  0  0  0  0  0  0  0  0  0
    9.8252   40.7192   31.7588 H   0  0  0  0  0  0  0  0  0  0  0  0
   11.7316   39.5342   30.3522 H   0  0  0  0  0  0  0  0  0  0  0  0
   10.1214   38.2681   32.6413 H   0  0  0  0  0  0  0  0  0  0  0  0
   13.6882   37.4710   31.2319 H   0  0  0  0  0  0  0  0  0  0  0  0
   10.0257   38.1752   29.7657 H   0  0  0  0  0  0  0  0  0  0  0  0
   11.2797   36.3124   32.4916 H   0  0  0  0  0  0  0  0  0  0  0  0
   11.9872   36.9099   29.7715 H   0  0  0  0  0  0  0  0  0  0  0  0
   12.3365   38.3596   34.7454 H   0  0  0  0  0  0  0  0  0  0  0  0
   16.7577   34.1795   32.4622 H   0  0  0  0  0  0  0  0  0  0  0  0
   16.6367   34.5316   37.1418 H   0  0  0  0  0  0  0  0  0  0  0  0
   15.3532   35.7352   37.5143 H   0  0  0  0  0  0  0  0  0  0  0  0
  1  2  2  0
  1  3  1  0
  3  4  1  0
  4  5  1  0
  6  1  1  0
  7  6  1  0
  6  8  1  0
  8  9  1  0
  9 10  1  0
  9 11  2  0
 10 12  1  0
 12 13  1  0
 13 14  2  0
 15 13  1  0
 14 16  1  0
 17 15  2  0
 16 18  2  0
 18 17  1  0
  4 19  2  0
  4 20  1  0
 21 20  1  0
 21 22  1  0
 22 23  1  0
 22 24  1  0
 23 25  1  0
 24 26  1  0
 24 27  1  0
 27 25  1  0
 25 28  1  0
 27 29  1  0
 30 28  1  0
 31 28  1  0
 32 30  2  0
 30 33  1  0
 34 31  2  0
 35 32  1  0
 33 36  2  0
 33 34  1  0
 37 35  2  0
 37 36  1  0
 36 38  1  0
  6 39  1  6
  7 40  1  0
  7 41  1  0
  8 42  1  0
  8 43  1  0
 12 44  1  0
 12 45  1  0
 14 46  1  0
 15 47  1  0
 16 48  1  0
 17 49  1  0
 18 50  1  0
 21 51  1  0
 21 52  1  0
 22 53  1  0
 24 54  1  0
 25 55  1  0
 26 56  1  0
 27 57  1  0
 29 58  1  0
 31 59  1  0
 35 60  1  0
 38 61  1  0
 38 62  1  0
M  CHG  1   5  -1
M  END
>  <EmbedRMS>  (49) 
0.08760405018471518

$$$$

     RDKit          3D

 62 65  0  0  0  0  0  0  0  0999 V2000
   10.2862   43.7709   33.8099 C   0  0  0  0  0  0  0  0  0  0  0  0
   11.4100   43.5818   34.3616 O   0  0  0  0  0  0  0  0  0  0  0  0
    9.3668   42.7309   33.7019 O   0  0  0  0  0  0  0  0  0  0  0  0
    9.8846   41.2329   34.2841 P   0  0  0  0  0  5  0  0  0  0  0  0
   10.3655   41.4677   35.8747 O   0  0  0  0  0  1  0  0  0  0  0  0
    9.9610   45.1121   33.2469 C   0  0  2  0  0  0  0  0  0  0  0  0
   11.0655   46.0481   33.4750 N   0  0  0  0  0  0  0  0  0  0  0  0
    8.6635   45.6562   33.8685 C   0  0  0  0  0  0  0  0  0  0  0  0
    8.2941   46.9737   33.2627 C   0  0  0  0  0  0  0  0  0  0  0  0
    8.7497   48.1545   33.8589 O   0  0  0  0  0  0  0  0  0  0  0  0
    7.6235   47.0066   32.1948 O   0  0  0  0  0  0  0  0  0  0  0  0
    8.6211   49.4364   33.2491 C   0  0  0  0  0  0  0  0  0  0  0  0
    9.5504   49.5454   32.0710 C   0  0  0  0  0  0  0  0  0  0  0  0
    9.0437   49.6582   30.7655 C   0  0  0  0  0  0  0  0  0  0  0  0
   10.9400   49.4993   32.2694 C   0  0  0  0  0  0  0  0  0  0  0  0
    9.9175   49.7309   29.6760 C   0  0  0  0  0  0  0  0  0  0  0  0
   11.8100   49.5711   31.1772 C   0  0  0  0  0  0  0  0  0  0  0  0
   11.2993   49.6876   29.8815 C   0  0  0  0  0  0  0  0  0  0  0  0
    8.8069   40.1904   34.2081 O   0  0  0  0  0  0  0  0  0  0  0  0
   11.2367   40.7895   33.3683 O   0  0  0  0  0  0  0  0  0  0  0  0
   10.9159   40.6889   31.9950 C   0  0  0  0  0  0  0  0  0  0  0  0
   11.5251   39.3872   31.4364 C   0  0  0  0  0  0  0  0  0  0  0  0
   12.7486   39.0879   32.0803 O   0  0  0  0  0  0  0  0  0  0  0  0
   10.6100   38.1909   31.6470 C   0  0  0  0  0  0  0  0  0  0  0  0
   12.9348   37.6808   32.0292 C   0  0  0  0  0  0  0  0  0  0  0  0
    9.6126   38.0874   30.6546 O   0  0  0  0  0  0  0  0  0  0  0  0
   11.5767   37.0133   31.7025 C   0  0  0  0  0  0  0  0  0  0  0  0
   13.4901   37.2165   33.3236 N   0  0  0  0  0  0  0  0  0  0  0  0
   11.6322   36.3231   30.4741 O   0  0  0  0  0  0  0  0  0  0  0  0
   14.4763   36.3266   33.5727 C   0  0  0  0  0  0  0  0  0  0  0  0
   13.1179   37.6307   34.5689 C   0  0  0  0  0  0  0  0  0  0  0  0
   15.2065   35.6135   32.6738 N   0  0  0  0  0  0  0  0  0  0  0  0
   14.6736   36.2272   34.9182 C   0  0  0  0  0  0  0  0  0  0  0  0
   13.8228   37.0453   35.5783 N   0  0  0  0  0  0  0  0  0  0  0  0
   16.1640   34.7593   33.1547 C   0  0  0  0  0  0  0  0  0  0  0  0
   15.6518   35.3491   35.4130 C   0  0  0  0  0  0  0  0  0  0  0  0
   16.3795   34.6309   34.5042 N   0  0  0  0  0  0  0  0  0  0  0  0
   15.9004   35.1933   36.8089 N   0  0  0  0  0  0  0  0  0  0  0  0
    9.8115   44.9951   32.1505 H   0  0  0  0  0  0  0  0  0  0  0  0
   11.2745   46.1197   34.4983 H   0  0  0  0  0  0  0  0  0  0  0  0
   11.9223   45.7038   32.9826 H   0  0  0  0  0  0  0  0  0  0  0  0
    7.8308   44.9384   33.6999 H   0  0  0  0  0  0  0  0  0  0  0  0
    8.7888   45.7799   34.9666 H   0  0  0  0  0  0  0  0  0  0  0  0
    8.8930   50.2135   33.9943 H   0  0  0  0  0  0  0  0  0  0  0  0
    7.5627   49.6130   32.9566 H   0  0  0  0  0  0  0  0  0  0  0  0
    7.9755   49.6856   30.5901 H   0  0  0  0  0  0  0  0  0  0  0  0
   11.3469   49.4020   33.2684 H   0  0  0  0  0  0  0  0  0  0  0  0
    9.5231   49.8179   28.6718 H   0  0  0  0  0  0  0  0  0  0  0  0
   12.8801   49.5339   31.3352 H   0  0  0  0  0  0  0  0  0  0  0  0
   11.9739   49.7423   29.0370 H   0  0  0  0  0  0  0  0  0  0  0  0
    9.8259   40.7205   31.7574 H   0  0  0  0  0  0  0  0  0  0  0  0
   11.3847   41.5506   31.4736 H   0  0  0  0  0  0  0  0  0  0  0  0
   11.7273   39.5286   30.3501 H   0  0  0  0  0  0  0  0  0  0  0  0
   10.1122   38.2731   32.6390 H   0  0  0  0  0  0  0  0  0  0  0  0
   13.6685   37.4591   31.2224 H   0  0  0  0  0  0  0  0  0  0  0  0
   10.0513   38.1110   29.7647 H   0  0  0  0  0  0  0  0  0  0  0  0
   11.2801   36.3128   32.5195 H   0  0  0  0  0  0  0  0  0  0  0  0
   10.8625   35.6960   30.4645 H   0  0  0  0  0  0  0  0  0  0  0  0
   12.3356   38.3581   34.7445 H   0  0  0  0  0  0  0  0  0  0  0  0
   16.7575   34.1787   32.4619 H   0  0  0  0  0  0  0  0  0  0  0  0
   16.6364   34.5315   37.1415 H   0  0  0  0  0  0  0  0  0  0  0  0
   15.3531   35.7355   37.5138 H   0  0  0  0  0  0  0  0  0  0  0  0
  1  2  2  0
  1  3  1  0
  3  4  1  0
  4  5  1  0
  6  1  1  0
  7  6  1  0
  6  8  1  0
  8  9  1  0
  9 10  1  0
  9 11  2  0
 10 12  1  0
 12 13  1  0
 13 14  2  0
 15 13  1  0
 14 16  1  0
 17 15  2  0
 16 18  2  0
 18 17  1  0
  4 19  2  0
  4 20  1  0
 21 20  1  0
 21 22  1  0
 22 23  1  0
 22 24  1  0
 23 25  1  0
 24 26  1  0
 24 27  1  0
 27 25  1  0
 25 28  1  0
 27 29  1  0
 30 28  1  0
 31 28  1  0
 32 30  2  0
 30 33  1  0
 34 31  2  0
 35 32  1  0
 33 36  2  0
 33 34  1  0
 37 35  2  0
 37 36  1  0
 36 38  1  0
  6 39  1  6
  7 40  1  0
  7 41  1  0
  8 42  1  0
  8 43  1  0
 12 44  1  0
 12 45  1  0
 14 46  1  0
 15 47  1  0
 16 48  1  0
 17 49  1  0
 18 50  1  0
 21 51  1  0
 21 52  1  0
 22 53  1  0
 24 54  1  0
 25 55  1  0
 26 56  1  0
 27 57  1  0
 29 58  1  0
 31 59  1  0
 35 60  1  0
 38 61  1  0
 38 62  1  0
M  CHG  1   5  -1
M  END
>  <EmbedRMS>  (50) 
0.08864543442779128

$$$$

     RDKit          3D

 62 65  0  0  0  0  0  0  0  0999 V2000
   10.2829   43.7754   33.8076 C   0  0  0  0  0  0  0  0  0  0  0  0
   11.4086   43.5914   34.3578 O   0  0  0  0  0  0  0  0  0  0  0  0
    9.3669   42.7317   33.7011 O   0  0  0  0  0  0  0  0  0  0  0  0
    9.8865   41.2344   34.2838 P   0  0  0  0  0  5  0  0  0  0  0  0
   10.3665   41.4694   35.8744 O   0  0  0  0  0  1  0  0  0  0  0  0
    9.9535   45.1117   33.2434 C   0  0  2  0  0  0  0  0  0  0  0  0
   11.0726   46.0267   33.4849 N   0  0  0  0  0  0  0  0  0  0  0  0
    8.6401   45.6442   33.8544 C   0  0  0  0  0  0  0  0  0  0  0  0
    8.2250   46.9363   33.2228 C   0  0  0  0  0  0  0  0  0  0  0  0
    8.5486   48.1442   33.8509 O   0  0  0  0  0  0  0  0  0  0  0  0
    7.6230   46.9258   32.1144 O   0  0  0  0  0  0  0  0  0  0  0  0
    8.1887   49.4201   33.3262 C   0  0  0  0  0  0  0  0  0  0  0  0
    6.7092   49.6497   33.4723 C   0  0  0  0  0  0  0  0  0  0  0  0
    5.8747   49.6884   32.3426 C   0  0  0  0  0  0  0  0  0  0  0  0
    6.1465   49.8007   34.7500 C   0  0  0  0  0  0  0  0  0  0  0  0
    4.4980   49.8839   32.4914 C   0  0  0  0  0  0  0  0  0  0  0  0
    4.7693   49.9961   34.8945 C   0  0  0  0  0  0  0  0  0  0  0  0
    3.9458   50.0383   33.7660 C   0  0  0  0  0  0  0  0  0  0  0  0
    8.8091   40.1913   34.2077 O   0  0  0  0  0  0  0  0  0  0  0  0
   11.2390   40.7909   33.3682 O   0  0  0  0  0  0  0  0  0  0  0  0
   10.9194   40.6896   31.9946 C   0  0  0  0  0  0  0  0  0  0  0  0
   11.5171   39.3801   31.4397 C   0  0  0  0  0  0  0  0  0  0  0  0
   12.7478   39.0861   32.0733 O   0  0  0  0  0  0  0  0  0  0  0  0
   10.6031   38.1891   31.6666 C   0  0  0  0  0  0  0  0  0  0  0  0
   12.9335   37.6796   32.0279 C   0  0  0  0  0  0  0  0  0  0  0  0
    9.6397   38.0777   30.6456 O   0  0  0  0  0  0  0  0  0  0  0  0
   11.5739   37.0154   31.7057 C   0  0  0  0  0  0  0  0  0  0  0  0
   13.4903   37.2178   33.3231 N   0  0  0  0  0  0  0  0  0  0  0  0
   11.6211   36.3376   30.4695 O   0  0  0  0  0  0  0  0  0  0  0  0
   14.4761   36.3273   33.5725 C   0  0  0  0  0  0  0  0  0  0  0  0
   13.1179   37.6317   34.5684 C   0  0  0  0  0  0  0  0  0  0  0  0
   15.2063   35.6139   32.6737 N   0  0  0  0  0  0  0  0  0  0  0  0
   14.6734   36.2277   34.9180 C   0  0  0  0  0  0  0  0  0  0  0  0
   13.8226   37.0459   35.5779 N   0  0  0  0  0  0  0  0  0  0  0  0
   16.1636   34.7594   33.1546 C   0  0  0  0  0  0  0  0  0  0  0  0
   15.6515   35.3494   35.4129 C   0  0  0  0  0  0  0  0  0  0  0  0
   16.3791   34.6311   34.5041 N   0  0  0  0  0  0  0  0  0  0  0  0
   15.9001   35.1935   36.8088 N   0  0  0  0  0  0  0  0  0  0  0  0
    9.8206   44.9853   32.1457 H   0  0  0  0  0  0  0  0  0  0  0  0
   10.9424   46.8850   32.9018 H   0  0  0  0  0  0  0  0  0  0  0  0
   11.0774   46.3247   34.4883 H   0  0  0  0  0  0  0  0  0  0  0  0
    7.8250   44.9030   33.7021 H   0  0  0  0  0  0  0  0  0  0  0  0
    8.7581   45.7904   34.9505 H   0  0  0  0  0  0  0  0  0  0  0  0
    8.7322   50.2037   33.8952 H   0  0  0  0  0  0  0  0  0  0  0  0
    8.5135   49.4990   32.2654 H   0  0  0  0  0  0  0  0  0  0  0  0
    6.2875   49.5654   31.3490 H   0  0  0  0  0  0  0  0  0  0  0  0
    6.7743   49.7652   35.6319 H   0  0  0  0  0  0  0  0  0  0  0  0
    3.8588   49.9139   31.6184 H   0  0  0  0  0  0  0  0  0  0  0  0
    4.3404   50.1130   35.8813 H   0  0  0  0  0  0  0  0  0  0  0  0
    2.8800   50.1888   33.8794 H   0  0  0  0  0  0  0  0  0  0  0  0
   11.4008   41.5437   31.4721 H   0  0  0  0  0  0  0  0  0  0  0  0
    9.8315   40.7396   31.7549 H   0  0  0  0  0  0  0  0  0  0  0  0
   11.6983   39.5041   30.3470 H   0  0  0  0  0  0  0  0  0  0  0  0
   10.1090   38.2632   32.6649 H   0  0  0  0  0  0  0  0  0  0  0  0
   13.6656   37.4541   31.2207 H   0  0  0  0  0  0  0  0  0  0  0  0
    8.8965   38.6899   30.8852 H   0  0  0  0  0  0  0  0  0  0  0  0
   11.2846   36.3060   32.5175 H   0  0  0  0  0  0  0  0  0  0  0  0
   10.8523   35.7094   30.4590 H   0  0  0  0  0  0  0  0  0  0  0  0
   12.3353   38.3588   34.7439 H   0  0  0  0  0  0  0  0  0  0  0  0
   16.7570   34.1788   32.4619 H   0  0  0  0  0  0  0  0  0  0  0  0
   16.6360   34.5317   37.1414 H   0  0  0  0  0  0  0  0  0  0  0  0
   15.3529   35.7359   37.5136 H   0  0  0  0  0  0  0  0  0  0  0  0
  1  2  2  0
  1  3  1  0
  3  4  1  0
  4  5  1  0
  6  1  1  0
  7  6  1  0
  6  8  1  0
  8  9  1  0
  9 10  1  0
  9 11  2  0
 10 12  1  0
 12 13  1  0
 13 14  2  0
 15 13  1  0
 14 16  1  0
 17 15  2  0
 16 18  2  0
 18 17  1  0
  4 19  2  0
  4 20  1  0
 21 20  1  0
 21 22  1  0
 22 23  1  0
 22 24  1  0
 23 25  1  0
 24 26  1  0
 24 27  1  0
 27 25  1  0
 25 28  1  0
 27 29  1  0
 30 28  1  0
 31 28  1  0
 32 30  2  0
 30 33  1  0
 34 31  2  0
 35 32  1  0
 33 36  2  0
 33 34  1  0
 37 35  2  0
 37 36  1  0
 36 38  1  0
  6 39  1  6
  7 40  1  0
  7 41  1  0
  8 42  1  0
  8 43  1  0
 12 44  1  0
 12 45  1  0
 14 46  1  0
 15 47  1  0
 16 48  1  0
 17 49  1  0
 18 50  1  0
 21 51  1  0
 21 52  1  0
 22 53  1  0
 24 54  1  0
 25 55  1  0
 26 56  1  0
 27 57  1  0
 29 58  1  0
 31 59  1  0
 35 60  1  0
 38 61  1  0
 38 62  1  0
M  CHG  1   5  -1
M  END
>  <EmbedRMS>  (51) 
0.08916562339984797

$$$$

     RDKit          3D

 62 65  0  0  0  0  0  0  0  0999 V2000
   10.2863   43.7709   33.8097 C   0  0  0  0  0  0  0  0  0  0  0  0
   11.4101   43.5817   34.3616 O   0  0  0  0  0  0  0  0  0  0  0  0
    9.3671   42.7306   33.7015 O   0  0  0  0  0  0  0  0  0  0  0  0
    9.8851   41.2327   34.2837 P   0  0  0  0  0  5  0  0  0  0  0  0
   10.3652   41.4675   35.8745 O   0  0  0  0  0  1  0  0  0  0  0  0
    9.9604   45.1126   33.2478 C   0  0  2  0  0  0  0  0  0  0  0  0
   11.0658   46.0478   33.4746 N   0  0  0  0  0  0  0  0  0  0  0  0
    8.6652   45.6567   33.8735 C   0  0  0  0  0  0  0  0  0  0  0  0
    8.2807   46.9678   33.2612 C   0  0  0  0  0  0  0  0  0  0  0  0
    8.7679   48.1538   33.8170 O   0  0  0  0  0  0  0  0  0  0  0  0
    7.5583   46.9897   32.2273 O   0  0  0  0  0  0  0  0  0  0  0  0
    8.4841   49.4344   33.2653 C   0  0  0  0  0  0  0  0  0  0  0  0
    9.1788   50.4863   34.0789 C   0  0  0  0  0  0  0  0  0  0  0  0
   10.5154   50.8213   33.8064 C   0  0  0  0  0  0  0  0  0  0  0  0
    8.5229   51.0942   35.1622 C   0  0  0  0  0  0  0  0  0  0  0  0
   11.1760   51.7734   34.5893 C   0  0  0  0  0  0  0  0  0  0  0  0
    9.1871   52.0459   35.9426 C   0  0  0  0  0  0  0  0  0  0  0  0
   10.5117   52.3871   35.6549 C   0  0  0  0  0  0  0  0  0  0  0  0
    8.8075   40.1901   34.2071 O   0  0  0  0  0  0  0  0  0  0  0  0
   11.2381   40.7897   33.3686 O   0  0  0  0  0  0  0  0  0  0  0  0
   10.9194   40.6894   31.9947 C   0  0  0  0  0  0  0  0  0  0  0  0
   11.5171   39.3800   31.4396 C   0  0  0  0  0  0  0  0  0  0  0  0
   12.7479   39.0861   32.0733 O   0  0  0  0  0  0  0  0  0  0  0  0
   10.6031   38.1891   31.6666 C   0  0  0  0  0  0  0  0  0  0  0  0
   12.9335   37.6796   32.0279 C   0  0  0  0  0  0  0  0  0  0  0  0
    9.6397   38.0776   30.6456 O   0  0  0  0  0  0  0  0  0  0  0  0
   11.5739   37.0153   31.7057 C   0  0  0  0  0  0  0  0  0  0  0  0
   13.4903   37.2178   33.3231 N   0  0  0  0  0  0  0  0  0  0  0  0
   11.6211   36.3376   30.4695 O   0  0  0  0  0  0  0  0  0  0  0  0
   14.4761   36.3273   33.5725 C   0  0  0  0  0  0  0  0  0  0  0  0
   13.1179   37.6316   34.5684 C   0  0  0  0  0  0  0  0  0  0  0  0
   15.2063   35.6139   32.6737 N   0  0  0  0  0  0  0  0  0  0  0  0
   14.6733   36.2277   34.9180 C   0  0  0  0  0  0  0  0  0  0  0  0
   13.8225   37.0459   35.5779 N   0  0  0  0  0  0  0  0  0  0  0  0
   16.1636   34.7594   33.1546 C   0  0  0  0  0  0  0  0  0  0  0  0
   15.6515   35.3494   35.4129 C   0  0  0  0  0  0  0  0  0  0  0  0
   16.3791   34.6311   34.5041 N   0  0  0  0  0  0  0  0  0  0  0  0
   15.9001   35.1935   36.8088 N   0  0  0  0  0  0  0  0  0  0  0  0
    9.8082   44.9962   32.1518 H   0  0  0  0  0  0  0  0  0  0  0  0
   11.2755   46.1194   34.4979 H   0  0  0  0  0  0  0  0  0  0  0  0
   11.9221   45.7015   32.9826 H   0  0  0  0  0  0  0  0  0  0  0  0
    7.8351   44.9326   33.7187 H   0  0  0  0  0  0  0  0  0  0  0  0
    8.7979   45.7901   34.9696 H   0  0  0  0  0  0  0  0  0  0  0  0
    8.8372   49.4755   32.2114 H   0  0  0  0  0  0  0  0  0  0  0  0
    7.3857   49.6081   33.2667 H   0  0  0  0  0  0  0  0  0  0  0  0
   11.0446   50.3451   32.9901 H   0  0  0  0  0  0  0  0  0  0  0  0
    7.5000   50.8313   35.4023 H   0  0  0  0  0  0  0  0  0  0  0  0
   12.2043   52.0324   34.3724 H   0  0  0  0  0  0  0  0  0  0  0  0
    8.6762   52.5160   36.7729 H   0  0  0  0  0  0  0  0  0  0  0  0
   11.0247   53.1227   36.2608 H   0  0  0  0  0  0  0  0  0  0  0  0
    9.8317   40.7398   31.7544 H   0  0  0  0  0  0  0  0  0  0  0  0
   11.4014   41.5437   31.4731 H   0  0  0  0  0  0  0  0  0  0  0  0
   11.6983   39.5042   30.3470 H   0  0  0  0  0  0  0  0  0  0  0  0
   10.1090   38.2631   32.6649 H   0  0  0  0  0  0  0  0  0  0  0  0
   13.6656   37.4540   31.2207 H   0  0  0  0  0  0  0  0  0  0  0  0
    8.8965   38.6899   30.8852 H   0  0  0  0  0  0  0  0  0  0  0  0
   11.2846   36.3059   32.5175 H   0  0  0  0  0  0  0  0  0  0  0  0
   10.8524   35.7094   30.4590 H   0  0  0  0  0  0  0  0  0  0  0  0
   12.3353   38.3588   34.7439 H   0  0  0  0  0  0  0  0  0  0  0  0
   16.7570   34.1788   32.4619 H   0  0  0  0  0  0  0  0  0  0  0  0
   16.6360   34.5317   37.1413 H   0  0  0  0  0  0  0  0  0  0  0  0
   15.3529   35.7359   37.5136 H   0  0  0  0  0  0  0  0  0  0  0  0
  1  2  2  0
  1  3  1  0
  3  4  1  0
  4  5  1  0
  6  1  1  0
  7  6  1  0
  6  8  1  0
  8  9  1  0
  9 10  1  0
  9 11  2  0
 10 12  1  0
 12 13  1  0
 13 14  2  0
 15 13  1  0
 14 16  1  0
 17 15  2  0
 16 18  2  0
 18 17  1  0
  4 19  2  0
  4 20  1  0
 21 20  1  0
 21 22  1  0
 22 23  1  0
 22 24  1  0
 23 25  1  0
 24 26  1  0
 24 27  1  0
 27 25  1  0
 25 28  1  0
 27 29  1  0
 30 28  1  0
 31 28  1  0
 32 30  2  0
 30 33  1  0
 34 31  2  0
 35 32  1  0
 33 36  2  0
 33 34  1  0
 37 35  2  0
 37 36  1  0
 36 38  1  0
  6 39  1  6
  7 40  1  0
  7 41  1  0
  8 42  1  0
  8 43  1  0
 12 44  1  0
 12 45  1  0
 14 46  1  0
 15 47  1  0
 16 48  1  0
 17 49  1  0
 18 50  1  0
 21 51  1  0
 21 52  1  0
 22 53  1  0
 24 54  1  0
 25 55  1  0
 26 56  1  0
 27 57  1  0
 29 58  1  0
 31 59  1  0
 35 60  1  0
 38 61  1  0
 38 62  1  0
M  CHG  1   5  -1
M  END
>  <EmbedRMS>  (52) 
0.08995996821847806

$$$$

     RDKit          3D

 62 65  0  0  0  0  0  0  0  0999 V2000
   10.2875   43.7689   33.8087 C   0  0  0  0  0  0  0  0  0  0  0  0
   11.4116   43.5793   34.3596 O   0  0  0  0  0  0  0  0  0  0  0  0
    9.3665   42.7304   33.7019 O   0  0  0  0  0  0  0  0  0  0  0  0
    9.8844   41.2325   34.2835 P   0  0  0  0  0  5  0  0  0  0  0  0
   10.3657   41.4676   35.8740 O   0  0  0  0  0  1  0  0  0  0  0  0
    9.9638   45.1116   33.2469 C   0  0  2  0  0  0  0  0  0  0  0  0
   11.0622   46.0542   33.4764 N   0  0  0  0  0  0  0  0  0  0  0  0
    8.6421   45.6682   33.8104 C   0  0  0  0  0  0  0  0  0  0  0  0
    8.6658   45.8218   35.3025 C   0  0  0  0  0  0  0  0  0  0  0  0
    9.1569   47.0033   35.8640 O   0  0  0  0  0  0  0  0  0  0  0  0
    8.2768   44.8731   36.0374 O   0  0  0  0  0  0  0  0  0  0  0  0
    9.2678   47.1979   37.2690 C   0  0  0  0  0  0  0  0  0  0  0  0
    9.8773   48.5429   37.5333 C   0  0  0  0  0  0  0  0  0  0  0  0
    9.0593   49.6661   37.7400 C   0  0  0  0  0  0  0  0  0  0  0  0
   11.2726   48.7018   37.5075 C   0  0  0  0  0  0  0  0  0  0  0  0
    9.6321   50.9249   37.9475 C   0  0  0  0  0  0  0  0  0  0  0  0
   11.8414   49.9623   37.7152 C   0  0  0  0  0  0  0  0  0  0  0  0
   11.0220   51.0726   37.9376 C   0  0  0  0  0  0  0  0  0  0  0  0
    8.8065   40.1902   34.2080 O   0  0  0  0  0  0  0  0  0  0  0  0
   11.2363   40.7897   33.3664 O   0  0  0  0  0  0  0  0  0  0  0  0
   10.9140   40.6849   31.9934 C   0  0  0  0  0  0  0  0  0  0  0  0
   11.5165   39.3773   31.4394 C   0  0  0  0  0  0  0  0  0  0  0  0
   12.7471   39.0855   32.0740 O   0  0  0  0  0  0  0  0  0  0  0  0
   10.6047   38.1867   31.6670 C   0  0  0  0  0  0  0  0  0  0  0  0
   12.9345   37.6791   32.0282 C   0  0  0  0  0  0  0  0  0  0  0  0
    9.6378   38.0917   30.6488 O   0  0  0  0  0  0  0  0  0  0  0  0
   11.5761   37.0129   31.7056 C   0  0  0  0  0  0  0  0  0  0  0  0
   13.4909   37.2177   33.3233 N   0  0  0  0  0  0  0  0  0  0  0  0
   11.6234   36.3371   30.4684 O   0  0  0  0  0  0  0  0  0  0  0  0
   14.4765   36.3272   33.5727 C   0  0  0  0  0  0  0  0  0  0  0  0
   13.1182   37.6316   34.5685 C   0  0  0  0  0  0  0  0  0  0  0  0
   15.2066   35.6137   32.6739 N   0  0  0  0  0  0  0  0  0  0  0  0
   14.6736   36.2276   34.9182 C   0  0  0  0  0  0  0  0  0  0  0  0
   13.8227   37.0458   35.5781 N   0  0  0  0  0  0  0  0  0  0  0  0
   16.1638   34.7593   33.1548 C   0  0  0  0  0  0  0  0  0  0  0  0
   15.6517   35.3492   35.4131 C   0  0  0  0  0  0  0  0  0  0  0  0
   16.3792   34.6309   34.5043 N   0  0  0  0  0  0  0  0  0  0  0  0
   15.9002   35.1934   36.8090 N   0  0  0  0  0  0  0  0  0  0  0  0
    9.8334   44.9916   32.1488 H   0  0  0  0  0  0  0  0  0  0  0  0
   11.3057   46.0955   34.4934 H   0  0  0  0  0  0  0  0  0  0  0  0
   11.9089   45.7284   32.9546 H   0  0  0  0  0  0  0  0  0  0  0  0
    8.4394   46.6595   33.3504 H   0  0  0  0  0  0  0  0  0  0  0  0
    7.8022   44.9985   33.5223 H   0  0  0  0  0  0  0  0  0  0  0  0
    9.9073   46.4011   37.7087 H   0  0  0  0  0  0  0  0  0  0  0  0
    8.2616   47.1287   37.7375 H   0  0  0  0  0  0  0  0  0  0  0  0
    7.9807   49.5675   37.7399 H   0  0  0  0  0  0  0  0  0  0  0  0
   11.9179   47.8510   37.3256 H   0  0  0  0  0  0  0  0  0  0  0  0
    8.9984   51.7868   38.1119 H   0  0  0  0  0  0  0  0  0  0  0  0
   12.9173   50.0791   37.6998 H   0  0  0  0  0  0  0  0  0  0  0  0
   11.4637   52.0478   38.0968 H   0  0  0  0  0  0  0  0  0  0  0  0
   11.3872   41.5416   31.4677 H   0  0  0  0  0  0  0  0  0  0  0  0
    9.8241   40.7213   31.7565 H   0  0  0  0  0  0  0  0  0  0  0  0
   11.6985   39.5014   30.3468 H   0  0  0  0  0  0  0  0  0  0  0  0
   10.1095   38.2769   32.6629 H   0  0  0  0  0  0  0  0  0  0  0  0
   13.6672   37.4546   31.2213 H   0  0  0  0  0  0  0  0  0  0  0  0
    8.9780   37.4156   30.9533 H   0  0  0  0  0  0  0  0  0  0  0  0
   11.2861   36.3041   32.5176 H   0  0  0  0  0  0  0  0  0  0  0  0
   10.8690   35.6918   30.4657 H   0  0  0  0  0  0  0  0  0  0  0  0
   12.3356   38.3587   34.7440 H   0  0  0  0  0  0  0  0  0  0  0  0
   16.7572   34.1786   32.4621 H   0  0  0  0  0  0  0  0  0  0  0  0
   15.3530   35.7358   37.5138 H   0  0  0  0  0  0  0  0  0  0  0  0
   16.6361   34.5315   37.1415 H   0  0  0  0  0  0  0  0  0  0  0  0
  1  2  2  0
  1  3  1  0
  3  4  1  0
  4  5  1  0
  6  1  1  0
  7  6  1  0
  6  8  1  0
  8  9  1  0
  9 10  1  0
  9 11  2  0
 10 12  1  0
 12 13  1  0
 13 14  2  0
 15 13  1  0
 14 16  1  0
 17 15  2  0
 16 18  2  0
 18 17  1  0
  4 19  2  0
  4 20  1  0
 21 20  1  0
 21 22  1  0
 22 23  1  0
 22 24  1  0
 23 25  1  0
 24 26  1  0
 24 27  1  0
 27 25  1  0
 25 28  1  0
 27 29  1  0
 30 28  1  0
 31 28  1  0
 32 30  2  0
 30 33  1  0
 34 31  2  0
 35 32  1  0
 33 36  2  0
 33 34  1  0
 37 35  2  0
 37 36  1  0
 36 38  1  0
  6 39  1  6
  7 40  1  0
  7 41  1  0
  8 42  1  0
  8 43  1  0
 12 44  1  0
 12 45  1  0
 14 46  1  0
 15 47  1  0
 16 48  1  0
 17 49  1  0
 18 50  1  0
 21 51  1  0
 21 52  1  0
 22 53  1  0
 24 54  1  0
 25 55  1  0
 26 56  1  0
 27 57  1  0
 29 58  1  0
 31 59  1  0
 35 60  1  0
 38 61  1  0
 38 62  1  0
M  CHG  1   5  -1
M  END
>  <EmbedRMS>  (53) 
0.0896514951489391

$$$$

     RDKit          3D

 62 65  0  0  0  0  0  0  0  0999 V2000
   10.2859   43.7720   33.8048 C   0  0  0  0  0  0  0  0  0  0  0  0
   11.4085   43.5886   34.3612 O   0  0  0  0  0  0  0  0  0  0  0  0
    9.3675   42.7309   33.6994 O   0  0  0  0  0  0  0  0  0  0  0  0
    9.8855   41.2342   34.2843 P   0  0  0  0  0  5  0  0  0  0  0  0
   10.3651   41.4701   35.8750 O   0  0  0  0  0  1  0  0  0  0  0  0
    9.9529   45.1148   33.2534 C   0  0  2  0  0  0  0  0  0  0  0  0
   11.0715   46.0331   33.4764 N   0  0  0  0  0  0  0  0  0  0  0  0
    8.6601   45.6658   33.8891 C   0  0  0  0  0  0  0  0  0  0  0  0
    8.7925   45.8607   35.3705 C   0  0  0  0  0  0  0  0  0  0  0  0
    9.4250   47.0071   35.8584 O   0  0  0  0  0  0  0  0  0  0  0  0
    8.3680   44.9737   36.1608 O   0  0  0  0  0  0  0  0  0  0  0  0
    9.6382   47.2352   37.2466 C   0  0  0  0  0  0  0  0  0  0  0  0
   10.3777   48.5281   37.4252 C   0  0  0  0  0  0  0  0  0  0  0  0
   11.7785   48.5588   37.3263 C   0  0  0  0  0  0  0  0  0  0  0  0
    9.6741   49.7278   37.6228 C   0  0  0  0  0  0  0  0  0  0  0  0
   12.4667   49.7696   37.4534 C   0  0  0  0  0  0  0  0  0  0  0  0
   10.3662   50.9365   37.7496 C   0  0  0  0  0  0  0  0  0  0  0  0
   11.7613   50.9572   37.6674 C   0  0  0  0  0  0  0  0  0  0  0  0
    8.8081   40.1911   34.2080 O   0  0  0  0  0  0  0  0  0  0  0  0
   11.2382   40.7905   33.3697 O   0  0  0  0  0  0  0  0  0  0  0  0
   10.9190   40.6905   31.9962 C   0  0  0  0  0  0  0  0  0  0  0  0
   11.5176   39.3823   31.4412 C   0  0  0  0  0  0  0  0  0  0  0  0
   12.7495   39.0892   32.0755 O   0  0  0  0  0  0  0  0  0  0  0  0
   10.6036   38.1899   31.6659 C   0  0  0  0  0  0  0  0  0  0  0  0
   12.9401   37.6833   32.0276 C   0  0  0  0  0  0  0  0  0  0  0  0
    9.6377   38.0785   30.6474 O   0  0  0  0  0  0  0  0  0  0  0  0
   11.5804   37.0203   31.6937 C   0  0  0  0  0  0  0  0  0  0  0  0
   13.4902   37.2177   33.3237 N   0  0  0  0  0  0  0  0  0  0  0  0
   11.6118   36.3193   30.4680 O   0  0  0  0  0  0  0  0  0  0  0  0
   14.4759   36.3271   33.5731 C   0  0  0  0  0  0  0  0  0  0  0  0
   13.1175   37.6317   34.5688 C   0  0  0  0  0  0  0  0  0  0  0  0
   15.2064   35.6141   32.6742 N   0  0  0  0  0  0  0  0  0  0  0  0
   14.6729   36.2274   34.9184 C   0  0  0  0  0  0  0  0  0  0  0  0
   13.8221   37.0457   35.5783 N   0  0  0  0  0  0  0  0  0  0  0  0
   16.1637   34.7597   33.1549 C   0  0  0  0  0  0  0  0  0  0  0  0
   15.6514   35.3493   35.4133 C   0  0  0  0  0  0  0  0  0  0  0  0
   16.3791   34.6312   34.5044 N   0  0  0  0  0  0  0  0  0  0  0  0
   15.9001   35.1935   36.8091 N   0  0  0  0  0  0  0  0  0  0  0  0
    9.7832   45.0053   32.1586 H   0  0  0  0  0  0  0  0  0  0  0  0
   11.8826   45.7126   32.8976 H   0  0  0  0  0  0  0  0  0  0  0  0
   10.8103   46.9719   33.0958 H   0  0  0  0  0  0  0  0  0  0  0  0
    8.4062   46.6414   33.4213 H   0  0  0  0  0  0  0  0  0  0  0  0
    7.8132   44.9768   33.6766 H   0  0  0  0  0  0  0  0  0  0  0  0
   10.2305   46.3982   37.6776 H   0  0  0  0  0  0  0  0  0  0  0  0
    8.6603   47.2719   37.7749 H   0  0  0  0  0  0  0  0  0  0  0  0
   12.3358   47.6470   37.1500 H   0  0  0  0  0  0  0  0  0  0  0  0
    8.5925   49.7274   37.6780 H   0  0  0  0  0  0  0  0  0  0  0  0
   13.5465   49.7878   37.3819 H   0  0  0  0  0  0  0  0  0  0  0  0
    9.8205   51.8579   37.9074 H   0  0  0  0  0  0  0  0  0  0  0  0
   12.2952   51.8937   37.7641 H   0  0  0  0  0  0  0  0  0  0  0  0
    9.8311   40.7397   31.7559 H   0  0  0  0  0  0  0  0  0  0  0  0
   11.4000   41.5454   31.4746 H   0  0  0  0  0  0  0  0  0  0  0  0
   11.6990   39.5091   30.3489 H   0  0  0  0  0  0  0  0  0  0  0  0
   10.1131   38.2589   32.6664 H   0  0  0  0  0  0  0  0  0  0  0  0
   13.6801   37.4627   31.2265 H   0  0  0  0  0  0  0  0  0  0  0  0
    8.8953   38.6909   30.8891 H   0  0  0  0  0  0  0  0  0  0  0  0
   11.2831   36.3060   32.4929 H   0  0  0  0  0  0  0  0  0  0  0  0
   11.8859   36.9589   29.7593 H   0  0  0  0  0  0  0  0  0  0  0  0
   12.3360   38.3600   34.7441 H   0  0  0  0  0  0  0  0  0  0  0  0
   16.7572   34.1793   32.4621 H   0  0  0  0  0  0  0  0  0  0  0  0
   15.3528   35.7356   37.5140 H   0  0  0  0  0  0  0  0  0  0  0  0
   16.6362   34.5318   37.1416 H   0  0  0  0  0  0  0  0  0  0  0  0
  1  2  2  0
  1  3  1  0
  3  4  1  0
  4  5  1  0
  6  1  1  0
  7  6  1  0
  6  8  1  0
  8  9  1  0
  9 10  1  0
  9 11  2  0
 10 12  1  0
 12 13  1  0
 13 14  2  0
 15 13  1  0
 14 16  1  0
 17 15  2  0
 16 18  2  0
 18 17  1  0
  4 19  2  0
  4 20  1  0
 21 20  1  0
 21 22  1  0
 22 23  1  0
 22 24  1  0
 23 25  1  0
 24 26  1  0
 24 27  1  0
 27 25  1  0
 25 28  1  0
 27 29  1  0
 30 28  1  0
 31 28  1  0
 32 30  2  0
 30 33  1  0
 34 31  2  0
 35 32  1  0
 33 36  2  0
 33 34  1  0
 37 35  2  0
 37 36  1  0
 36 38  1  0
  6 39  1  6
  7 40  1  0
  7 41  1  0
  8 42  1  0
  8 43  1  0
 12 44  1  0
 12 45  1  0
 14 46  1  0
 15 47  1  0
 16 48  1  0
 17 49  1  0
 18 50  1  0
 21 51  1  0
 21 52  1  0
 22 53  1  0
 24 54  1  0
 25 55  1  0
 26 56  1  0
 27 57  1  0
 29 58  1  0
 31 59  1  0
 35 60  1  0
 38 61  1  0
 38 62  1  0
M  CHG  1   5  -1
M  END
>  <EmbedRMS>  (54) 
0.08833124027832874

$$$$

     RDKit          3D

 62 65  0  0  0  0  0  0  0  0999 V2000
   10.2846   43.7727   33.8071 C   0  0  0  0  0  0  0  0  0  0  0  0
   11.4103   43.5874   34.3563 O   0  0  0  0  0  0  0  0  0  0  0  0
    9.3661   42.7316   33.7019 O   0  0  0  0  0  0  0  0  0  0  0  0
    9.8848   41.2344   34.2850 P   0  0  0  0  0  5  0  0  0  0  0  0
   10.3658   41.4698   35.8753 O   0  0  0  0  0  1  0  0  0  0  0  0
    9.9584   45.1107   33.2434 C   0  0  2  0  0  0  0  0  0  0  0  0
   11.0676   46.0368   33.4847 N   0  0  0  0  0  0  0  0  0  0  0  0
    8.6191   45.6577   33.7877 C   0  0  0  0  0  0  0  0  0  0  0  0
    8.6091   45.8062   35.2805 C   0  0  0  0  0  0  0  0  0  0  0  0
    9.0110   47.0156   35.8535 O   0  0  0  0  0  0  0  0  0  0  0  0
    8.2691   44.8319   36.0062 O   0  0  0  0  0  0  0  0  0  0  0  0
    9.0824   47.2127   37.2608 C   0  0  0  0  0  0  0  0  0  0  0  0
    9.5936   48.5954   37.5391 C   0  0  0  0  0  0  0  0  0  0  0  0
   10.9753   48.8482   37.5448 C   0  0  0  0  0  0  0  0  0  0  0  0
    8.6971   49.6603   37.7272 C   0  0  0  0  0  0  0  0  0  0  0  0
   11.4527   50.1440   37.7654 C   0  0  0  0  0  0  0  0  0  0  0  0
    9.1787   50.9547   37.9477 C   0  0  0  0  0  0  0  0  0  0  0  0
   10.5553   51.1960   37.9692 C   0  0  0  0  0  0  0  0  0  0  0  0
    8.8076   40.1913   34.2091 O   0  0  0  0  0  0  0  0  0  0  0  0
   11.2366   40.7909   33.3690 O   0  0  0  0  0  0  0  0  0  0  0  0
   10.9151   40.6898   31.9961 C   0  0  0  0  0  0  0  0  0  0  0  0
   11.5268   39.3899   31.4375 C   0  0  0  0  0  0  0  0  0  0  0  0
   12.7506   39.0917   32.0840 O   0  0  0  0  0  0  0  0  0  0  0  0
   10.6121   38.1916   31.6452 C   0  0  0  0  0  0  0  0  0  0  0  0
   12.9429   37.6854   32.0295 C   0  0  0  0  0  0  0  0  0  0  0  0
    9.6069   38.0858   30.6603 O   0  0  0  0  0  0  0  0  0  0  0  0
   11.5845   37.0186   31.6880 C   0  0  0  0  0  0  0  0  0  0  0  0
   13.4899   37.2164   33.3250 N   0  0  0  0  0  0  0  0  0  0  0  0
   11.6202   36.3063   30.4693 O   0  0  0  0  0  0  0  0  0  0  0  0
   14.4759   36.3263   33.5738 C   0  0  0  0  0  0  0  0  0  0  0  0
   13.1176   37.6308   34.5699 C   0  0  0  0  0  0  0  0  0  0  0  0
   15.2065   35.6139   32.6746 N   0  0  0  0  0  0  0  0  0  0  0  0
   14.6731   36.2267   34.9191 C   0  0  0  0  0  0  0  0  0  0  0  0
   13.8224   37.0450   35.5792 N   0  0  0  0  0  0  0  0  0  0  0  0
   16.1640   34.7596   33.1551 C   0  0  0  0  0  0  0  0  0  0  0  0
   15.6517   35.3489   35.4136 C   0  0  0  0  0  0  0  0  0  0  0  0
   16.3795   34.6310   34.5045 N   0  0  0  0  0  0  0  0  0  0  0  0
   15.9006   35.1931   36.8094 N   0  0  0  0  0  0  0  0  0  0  0  0
    9.8498   44.9833   32.1440 H   0  0  0  0  0  0  0  0  0  0  0  0
   10.8512   46.9481   33.0190 H   0  0  0  0  0  0  0  0  0  0  0  0
   11.1652   46.2253   34.5089 H   0  0  0  0  0  0  0  0  0  0  0  0
    7.7911   44.9808   33.4829 H   0  0  0  0  0  0  0  0  0  0  0  0
    8.4117   46.6469   33.3256 H   0  0  0  0  0  0  0  0  0  0  0  0
    8.0747   47.0739   37.7103 H   0  0  0  0  0  0  0  0  0  0  0  0
    9.7663   46.4597   37.7107 H   0  0  0  0  0  0  0  0  0  0  0  0
   11.6805   48.0434   37.3774 H   0  0  0  0  0  0  0  0  0  0  0  0
    7.6280   49.4890   37.7027 H   0  0  0  0  0  0  0  0  0  0  0  0
   12.5184   50.3333   37.7742 H   0  0  0  0  0  0  0  0  0  0  0  0
    8.4846   51.7715   38.0978 H   0  0  0  0  0  0  0  0  0  0  0  0
   10.9263   52.1986   38.1384 H   0  0  0  0  0  0  0  0  0  0  0  0
    9.8249   40.7189   31.7591 H   0  0  0  0  0  0  0  0  0  0  0  0
   11.3817   41.5527   31.4744 H   0  0  0  0  0  0  0  0  0  0  0  0
   11.7317   39.5339   30.3522 H   0  0  0  0  0  0  0  0  0  0  0  0
   10.1213   38.2681   32.6413 H   0  0  0  0  0  0  0  0  0  0  0  0
   13.6882   37.4710   31.2319 H   0  0  0  0  0  0  0  0  0  0  0  0
   10.0257   38.1751   29.7656 H   0  0  0  0  0  0  0  0  0  0  0  0
   11.2796   36.3123   32.4915 H   0  0  0  0  0  0  0  0  0  0  0  0
   11.9872   36.9100   29.7715 H   0  0  0  0  0  0  0  0  0  0  0  0
   12.3365   38.3596   34.7454 H   0  0  0  0  0  0  0  0  0  0  0  0
   16.7576   34.1794   32.4622 H   0  0  0  0  0  0  0  0  0  0  0  0
   16.6368   34.5316   37.1418 H   0  0  0  0  0  0  0  0  0  0  0  0
   15.3532   35.7351   37.5143 H   0  0  0  0  0  0  0  0  0  0  0  0
  1  2  2  0
  1  3  1  0
  3  4  1  0
  4  5  1  0
  6  1  1  0
  7  6  1  0
  6  8  1  0
  8  9  1  0
  9 10  1  0
  9 11  2  0
 10 12  1  0
 12 13  1  0
 13 14  2  0
 15 13  1  0
 14 16  1  0
 17 15  2  0
 16 18  2  0
 18 17  1  0
  4 19  2  0
  4 20  1  0
 21 20  1  0
 21 22  1  0
 22 23  1  0
 22 24  1  0
 23 25  1  0
 24 26  1  0
 24 27  1  0
 27 25  1  0
 25 28  1  0
 27 29  1  0
 30 28  1  0
 31 28  1  0
 32 30  2  0
 30 33  1  0
 34 31  2  0
 35 32  1  0
 33 36  2  0
 33 34  1  0
 37 35  2  0
 37 36  1  0
 36 38  1  0
  6 39  1  6
  7 40  1  0
  7 41  1  0
  8 42  1  0
  8 43  1  0
 12 44  1  0
 12 45  1  0
 14 46  1  0
 15 47  1  0
 16 48  1  0
 17 49  1  0
 18 50  1  0
 21 51  1  0
 21 52  1  0
 22 53  1  0
 24 54  1  0
 25 55  1  0
 26 56  1  0
 27 57  1  0
 29 58  1  0
 31 59  1  0
 35 60  1  0
 38 61  1  0
 38 62  1  0
M  CHG  1   5  -1
M  END
>  <EmbedRMS>  (55) 
0.08687160707536859

$$$$

     RDKit          3D

 62 65  0  0  0  0  0  0  0  0999 V2000
   10.2873   43.7711   33.8022 C   0  0  0  0  0  0  0  0  0  0  0  0
   11.4095   43.5878   34.3594 O   0  0  0  0  0  0  0  0  0  0  0  0
    9.3682   42.7304   33.6978 O   0  0  0  0  0  0  0  0  0  0  0  0
    9.8856   41.2340   34.2838 P   0  0  0  0  0  5  0  0  0  0  0  0
   10.3650   41.4709   35.8745 O   0  0  0  0  0  1  0  0  0  0  0  0
    9.9520   45.1154   33.2556 C   0  0  2  0  0  0  0  0  0  0  0  0
   11.0706   46.0335   33.4778 N   0  0  0  0  0  0  0  0  0  0  0  0
    8.6622   45.6646   33.8989 C   0  0  0  0  0  0  0  0  0  0  0  0
    8.7962   45.8393   35.3826 C   0  0  0  0  0  0  0  0  0  0  0  0
    8.5641   44.7464   36.2254 O   0  0  0  0  0  0  0  0  0  0  0  0
    9.1567   46.9526   35.8531 O   0  0  0  0  0  0  0  0  0  0  0  0
    8.6792   44.8124   37.6445 C   0  0  0  0  0  0  0  0  0  0  0  0
    7.5315   45.5898   38.2280 C   0  0  0  0  0  0  0  0  0  0  0  0
    7.7422   46.8509   38.8104 C   0  0  0  0  0  0  0  0  0  0  0  0
    6.2294   45.0673   38.1679 C   0  0  0  0  0  0  0  0  0  0  0  0
    6.6646   47.5734   39.3326 C   0  0  0  0  0  0  0  0  0  0  0  0
    5.1546   45.7929   38.6914 C   0  0  0  0  0  0  0  0  0  0  0  0
    5.3721   47.0446   39.2740 C   0  0  0  0  0  0  0  0  0  0  0  0
    8.8080   40.1913   34.2081 O   0  0  0  0  0  0  0  0  0  0  0  0
   11.2382   40.7894   33.3689 O   0  0  0  0  0  0  0  0  0  0  0  0
   10.9190   40.6886   31.9951 C   0  0  0  0  0  0  0  0  0  0  0  0
   11.5181   39.3800   31.4398 C   0  0  0  0  0  0  0  0  0  0  0  0
   12.7485   39.0875   32.0749 O   0  0  0  0  0  0  0  0  0  0  0  0
   10.6054   38.1875   31.6656 C   0  0  0  0  0  0  0  0  0  0  0  0
   12.9361   37.6815   32.0288 C   0  0  0  0  0  0  0  0  0  0  0  0
    9.6423   38.0738   30.6445 O   0  0  0  0  0  0  0  0  0  0  0  0
   11.5765   37.0158   31.7046 C   0  0  0  0  0  0  0  0  0  0  0  0
   13.4908   37.2182   33.3237 N   0  0  0  0  0  0  0  0  0  0  0  0
   11.6102   36.3399   30.4680 O   0  0  0  0  0  0  0  0  0  0  0  0
   14.4762   36.3273   33.5728 C   0  0  0  0  0  0  0  0  0  0  0  0
   13.1181   37.6318   34.5689 C   0  0  0  0  0  0  0  0  0  0  0  0
   15.2063   35.6140   32.6739 N   0  0  0  0  0  0  0  0  0  0  0  0
   14.6733   36.2275   34.9182 C   0  0  0  0  0  0  0  0  0  0  0  0
   13.8226   37.0457   35.5783 N   0  0  0  0  0  0  0  0  0  0  0  0
   16.1635   34.7595   33.1546 C   0  0  0  0  0  0  0  0  0  0  0  0
   15.6515   35.3492   35.4130 C   0  0  0  0  0  0  0  0  0  0  0  0
   16.3791   34.6310   34.5041 N   0  0  0  0  0  0  0  0  0  0  0  0
   15.9002   35.1933   36.8089 N   0  0  0  0  0  0  0  0  0  0  0  0
    9.7779   45.0093   32.1611 H   0  0  0  0  0  0  0  0  0  0  0  0
   10.8082   46.9725   33.0985 H   0  0  0  0  0  0  0  0  0  0  0  0
   11.8805   45.7139   32.8968 H   0  0  0  0  0  0  0  0  0  0  0  0
    8.4027   46.6406   33.4337 H   0  0  0  0  0  0  0  0  0  0  0  0
    7.8161   44.9741   33.6909 H   0  0  0  0  0  0  0  0  0  0  0  0
    8.6572   43.7788   38.0500 H   0  0  0  0  0  0  0  0  0  0  0  0
    9.6602   45.2549   37.9254 H   0  0  0  0  0  0  0  0  0  0  0  0
    8.7372   47.2755   38.8585 H   0  0  0  0  0  0  0  0  0  0  0  0
    6.0483   44.1005   37.7146 H   0  0  0  0  0  0  0  0  0  0  0  0
    6.8314   48.5441   39.7813 H   0  0  0  0  0  0  0  0  0  0  0  0
    4.1530   45.3855   38.6439 H   0  0  0  0  0  0  0  0  0  0  0  0
    4.5392   47.6054   39.6780 H   0  0  0  0  0  0  0  0  0  0  0  0
   11.3996   41.5435   31.4731 H   0  0  0  0  0  0  0  0  0  0  0  0
    9.8310   40.7374   31.7552 H   0  0  0  0  0  0  0  0  0  0  0  0
   11.7002   39.5046   30.3474 H   0  0  0  0  0  0  0  0  0  0  0  0
   10.1104   38.2618   32.6637 H   0  0  0  0  0  0  0  0  0  0  0  0
   13.6696   37.4585   31.2222 H   0  0  0  0  0  0  0  0  0  0  0  0
    8.9000   38.6882   30.8814 H   0  0  0  0  0  0  0  0  0  0  0  0
   11.2690   36.3069   32.5091 H   0  0  0  0  0  0  0  0  0  0  0  0
   12.1426   35.5151   30.6153 H   0  0  0  0  0  0  0  0  0  0  0  0
   12.3359   38.3593   34.7445 H   0  0  0  0  0  0  0  0  0  0  0  0
   16.7569   34.1789   32.4618 H   0  0  0  0  0  0  0  0  0  0  0  0
   16.6362   34.5315   37.1413 H   0  0  0  0  0  0  0  0  0  0  0  0
   15.3530   35.7356   37.5138 H   0  0  0  0  0  0  0  0  0  0  0  0
  1  2  2  0
  1  3  1  0
  3  4  1  0
  4  5  1  0
  6  1  1  0
  7  6  1  0
  6  8  1  0
  8  9  1  0
  9 10  1  0
  9 11  2  0
 10 12  1  0
 12 13  1  0
 13 14  2  0
 15 13  1  0
 14 16  1  0
 17 15  2  0
 16 18  2  0
 18 17  1  0
  4 19  2  0
  4 20  1  0
 21 20  1  0
 21 22  1  0
 22 23  1  0
 22 24  1  0
 23 25  1  0
 24 26  1  0
 24 27  1  0
 27 25  1  0
 25 28  1  0
 27 29  1  0
 30 28  1  0
 31 28  1  0
 32 30  2  0
 30 33  1  0
 34 31  2  0
 35 32  1  0
 33 36  2  0
 33 34  1  0
 37 35  2  0
 37 36  1  0
 36 38  1  0
  6 39  1  6
  7 40  1  0
  7 41  1  0
  8 42  1  0
  8 43  1  0
 12 44  1  0
 12 45  1  0
 14 46  1  0
 15 47  1  0
 16 48  1  0
 17 49  1  0
 18 50  1  0
 21 51  1  0
 21 52  1  0
 22 53  1  0
 24 54  1  0
 25 55  1  0
 26 56  1  0
 27 57  1  0
 29 58  1  0
 31 59  1  0
 35 60  1  0
 38 61  1  0
 38 62  1  0
M  CHG  1   5  -1
M  END
>  <EmbedRMS>  (56) 
0.08934807187052973

$$$$

     RDKit          3D

 62 65  0  0  0  0  0  0  0  0999 V2000
   10.2861   43.7718   33.8043 C   0  0  0  0  0  0  0  0  0  0  0  0
   11.4113   43.5870   34.3545 O   0  0  0  0  0  0  0  0  0  0  0  0
    9.3669   42.7311   33.7003 O   0  0  0  0  0  0  0  0  0  0  0  0
    9.8847   41.2346   34.2852 P   0  0  0  0  0  5  0  0  0  0  0  0
   10.3651   41.4710   35.8756 O   0  0  0  0  0  1  0  0  0  0  0  0
    9.9566   45.1117   33.2468 C   0  0  2  0  0  0  0  0  0  0  0  0
   11.0672   46.0364   33.4857 N   0  0  0  0  0  0  0  0  0  0  0  0
    8.6224   45.6578   33.8044 C   0  0  0  0  0  0  0  0  0  0  0  0
    8.6153   45.7706   35.3007 C   0  0  0  0  0  0  0  0  0  0  0  0
    8.4002   44.6245   36.0745 O   0  0  0  0  0  0  0  0  0  0  0  0
    8.8323   46.8866   35.8469 O   0  0  0  0  0  0  0  0  0  0  0  0
    8.3832   44.6321   37.4996 C   0  0  0  0  0  0  0  0  0  0  0  0
    7.1258   45.2843   38.0050 C   0  0  0  0  0  0  0  0  0  0  0  0
    7.1750   46.5287   38.6553 C   0  0  0  0  0  0  0  0  0  0  0  0
    5.8837   44.6611   37.8027 C   0  0  0  0  0  0  0  0  0  0  0  0
    5.9972   47.1349   39.1040 C   0  0  0  0  0  0  0  0  0  0  0  0
    4.7084   45.2705   38.2530 C   0  0  0  0  0  0  0  0  0  0  0  0
    4.7652   46.5061   38.9038 C   0  0  0  0  0  0  0  0  0  0  0  0
    8.8073   40.1916   34.2095 O   0  0  0  0  0  0  0  0  0  0  0  0
   11.2365   40.7903   33.3696 O   0  0  0  0  0  0  0  0  0  0  0  0
   10.9152   40.6897   31.9965 C   0  0  0  0  0  0  0  0  0  0  0  0
   11.5268   39.3899   31.4376 C   0  0  0  0  0  0  0  0  0  0  0  0
   12.7507   39.0917   32.0840 O   0  0  0  0  0  0  0  0  0  0  0  0
   10.6121   38.1915   31.6453 C   0  0  0  0  0  0  0  0  0  0  0  0
   12.9429   37.6853   32.0295 C   0  0  0  0  0  0  0  0  0  0  0  0
    9.6070   38.0858   30.6603 O   0  0  0  0  0  0  0  0  0  0  0  0
   11.5845   37.0186   31.6880 C   0  0  0  0  0  0  0  0  0  0  0  0
   13.4899   37.2163   33.3250 N   0  0  0  0  0  0  0  0  0  0  0  0
   11.6202   36.3063   30.4693 O   0  0  0  0  0  0  0  0  0  0  0  0
   14.4759   36.3263   33.5738 C   0  0  0  0  0  0  0  0  0  0  0  0
   13.1175   37.6307   34.5699 C   0  0  0  0  0  0  0  0  0  0  0  0
   15.2065   35.6139   32.6746 N   0  0  0  0  0  0  0  0  0  0  0  0
   14.6731   36.2267   34.9191 C   0  0  0  0  0  0  0  0  0  0  0  0
   13.8224   37.0450   35.5792 N   0  0  0  0  0  0  0  0  0  0  0  0
   16.1640   34.7596   33.1551 C   0  0  0  0  0  0  0  0  0  0  0  0
   15.6517   35.3489   35.4136 C   0  0  0  0  0  0  0  0  0  0  0  0
   16.3795   34.6310   34.5046 N   0  0  0  0  0  0  0  0  0  0  0  0
   15.9006   35.1931   36.8094 N   0  0  0  0  0  0  0  0  0  0  0  0
    9.8404   44.9887   32.1476 H   0  0  0  0  0  0  0  0  0  0  0  0
   10.8572   46.9421   33.0063 H   0  0  0  0  0  0  0  0  0  0  0  0
   11.1535   46.2385   34.5084 H   0  0  0  0  0  0  0  0  0  0  0  0
    7.7920   44.9864   33.4959 H   0  0  0  0  0  0  0  0  0  0  0  0
    8.4148   46.6535   33.3551 H   0  0  0  0  0  0  0  0  0  0  0  0
    8.4140   43.5821   37.8596 H   0  0  0  0  0  0  0  0  0  0  0  0
    9.2939   45.1395   37.8873 H   0  0  0  0  0  0  0  0  0  0  0  0
    8.1218   47.0302   38.8131 H   0  0  0  0  0  0  0  0  0  0  0  0
    5.8273   43.7057   37.2955 H   0  0  0  0  0  0  0  0  0  0  0  0
    6.0396   48.0932   39.6054 H   0  0  0  0  0  0  0  0  0  0  0  0
    3.7536   44.7857   38.0959 H   0  0  0  0  0  0  0  0  0  0  0  0
    3.8546   46.9770   39.2511 H   0  0  0  0  0  0  0  0  0  0  0  0
    9.8251   40.7189   31.7593 H   0  0  0  0  0  0  0  0  0  0  0  0
   11.3821   41.5527   31.4752 H   0  0  0  0  0  0  0  0  0  0  0  0
   11.7316   39.5341   30.3523 H   0  0  0  0  0  0  0  0  0  0  0  0
   10.1213   38.2681   32.6413 H   0  0  0  0  0  0  0  0  0  0  0  0
   13.6882   37.4709   31.2319 H   0  0  0  0  0  0  0  0  0  0  0  0
   10.0257   38.1752   29.7657 H   0  0  0  0  0  0  0  0  0  0  0  0
   11.2796   36.3123   32.4915 H   0  0  0  0  0  0  0  0  0  0  0  0
   11.9872   36.9100   29.7715 H   0  0  0  0  0  0  0  0  0  0  0  0
   12.3365   38.3596   34.7454 H   0  0  0  0  0  0  0  0  0  0  0  0
   16.7576   34.1794   32.4622 H   0  0  0  0  0  0  0  0  0  0  0  0
   15.3532   35.7351   37.5143 H   0  0  0  0  0  0  0  0  0  0  0  0
   16.6368   34.5316   37.1418 H   0  0  0  0  0  0  0  0  0  0  0  0
  1  2  2  0
  1  3  1  0
  3  4  1  0
  4  5  1  0
  6  1  1  0
  7  6  1  0
  6  8  1  0
  8  9  1  0
  9 10  1  0
  9 11  2  0
 10 12  1  0
 12 13  1  0
 13 14  2  0
 15 13  1  0
 14 16  1  0
 17 15  2  0
 16 18  2  0
 18 17  1  0
  4 19  2  0
  4 20  1  0
 21 20  1  0
 21 22  1  0
 22 23  1  0
 22 24  1  0
 23 25  1  0
 24 26  1  0
 24 27  1  0
 27 25  1  0
 25 28  1  0
 27 29  1  0
 30 28  1  0
 31 28  1  0
 32 30  2  0
 30 33  1  0
 34 31  2  0
 35 32  1  0
 33 36  2  0
 33 34  1  0
 37 35  2  0
 37 36  1  0
 36 38  1  0
  6 39  1  6
  7 40  1  0
  7 41  1  0
  8 42  1  0
  8 43  1  0
 12 44  1  0
 12 45  1  0
 14 46  1  0
 15 47  1  0
 16 48  1  0
 17 49  1  0
 18 50  1  0
 21 51  1  0
 21 52  1  0
 22 53  1  0
 24 54  1  0
 25 55  1  0
 26 56  1  0
 27 57  1  0
 29 58  1  0
 31 59  1  0
 35 60  1  0
 38 61  1  0
 38 62  1  0
M  CHG  1   5  -1
M  END
>  <EmbedRMS>  (57) 
0.08687351422158089

$$$$

     RDKit          3D

 62 65  0  0  0  0  0  0  0  0999 V2000
   10.2864   43.7709   33.8097 C   0  0  0  0  0  0  0  0  0  0  0  0
   11.4102   43.5817   34.3616 O   0  0  0  0  0  0  0  0  0  0  0  0
    9.3672   42.7306   33.7015 O   0  0  0  0  0  0  0  0  0  0  0  0
    9.8851   41.2327   34.2837 P   0  0  0  0  0  5  0  0  0  0  0  0
   10.3652   41.4675   35.8745 O   0  0  0  0  0  1  0  0  0  0  0  0
    9.9606   45.1125   33.2475 C   0  0  2  0  0  0  0  0  0  0  0  0
   11.0654   46.0480   33.4748 N   0  0  0  0  0  0  0  0  0  0  0  0
    8.6650   45.6563   33.8726 C   0  0  0  0  0  0  0  0  0  0  0  0
    8.2769   46.9650   33.2578 C   0  0  0  0  0  0  0  0  0  0  0  0
    8.6992   48.1578   33.8554 O   0  0  0  0  0  0  0  0  0  0  0  0
    7.6095   46.9799   32.1875 O   0  0  0  0  0  0  0  0  0  0  0  0
    8.3649   49.4480   33.3489 C   0  0  0  0  0  0  0  0  0  0  0  0
    6.9110   49.7473   33.5932 C   0  0  0  0  0  0  0  0  0  0  0  0
    6.0040   49.8191   32.5225 C   0  0  0  0  0  0  0  0  0  0  0  0
    6.4442   49.9305   34.9050 C   0  0  0  0  0  0  0  0  0  0  0  0
    4.6511   50.0790   32.7629 C   0  0  0  0  0  0  0  0  0  0  0  0
    5.0906   50.1903   35.1410 C   0  0  0  0  0  0  0  0  0  0  0  0
    4.1948   50.2652   34.0708 C   0  0  0  0  0  0  0  0  0  0  0  0
    8.8075   40.1901   34.2072 O   0  0  0  0  0  0  0  0  0  0  0  0
   11.2381   40.7896   33.3686 O   0  0  0  0  0  0  0  0  0  0  0  0
   10.9194   40.6894   31.9948 C   0  0  0  0  0  0  0  0  0  0  0  0
   11.5171   39.3800   31.4396 C   0  0  0  0  0  0  0  0  0  0  0  0
   12.7479   39.0861   32.0733 O   0  0  0  0  0  0  0  0  0  0  0  0
   10.6031   38.1891   31.6666 C   0  0  0  0  0  0  0  0  0  0  0  0
   12.9335   37.6796   32.0279 C   0  0  0  0  0  0  0  0  0  0  0  0
    9.6397   38.0776   30.6456 O   0  0  0  0  0  0  0  0  0  0  0  0
   11.5739   37.0154   31.7057 C   0  0  0  0  0  0  0  0  0  0  0  0
   13.4903   37.2178   33.3231 N   0  0  0  0  0  0  0  0  0  0  0  0
   11.6211   36.3376   30.4695 O   0  0  0  0  0  0  0  0  0  0  0  0
   14.4761   36.3273   33.5725 C   0  0  0  0  0  0  0  0  0  0  0  0
   13.1179   37.6316   34.5684 C   0  0  0  0  0  0  0  0  0  0  0  0
   15.2063   35.6139   32.6737 N   0  0  0  0  0  0  0  0  0  0  0  0
   14.6733   36.2277   34.9180 C   0  0  0  0  0  0  0  0  0  0  0  0
   13.8225   37.0459   35.5779 N   0  0  0  0  0  0  0  0  0  0  0  0
   16.1636   34.7594   33.1546 C   0  0  0  0  0  0  0  0  0  0  0  0
   15.6515   35.3494   35.4129 C   0  0  0  0  0  0  0  0  0  0  0  0
   16.3791   34.6311   34.5041 N   0  0  0  0  0  0  0  0  0  0  0  0
   15.9001   35.1935   36.8088 N   0  0  0  0  0  0  0  0  0  0  0  0
    9.8091   44.9957   32.1514 H   0  0  0  0  0  0  0  0  0  0  0  0
   11.9218   45.7021   32.9828 H   0  0  0  0  0  0  0  0  0  0  0  0
   11.2750   46.1188   34.4982 H   0  0  0  0  0  0  0  0  0  0  0  0
    7.8356   44.9314   33.7188 H   0  0  0  0  0  0  0  0  0  0  0  0
    8.7974   45.7911   34.9686 H   0  0  0  0  0  0  0  0  0  0  0  0
    8.9817   50.2065   33.8756 H   0  0  0  0  0  0  0  0  0  0  0  0
    8.6204   49.5091   32.2682 H   0  0  0  0  0  0  0  0  0  0  0  0
    6.3420   49.6721   31.5042 H   0  0  0  0  0  0  0  0  0  0  0  0
    7.1284   49.8700   35.7425 H   0  0  0  0  0  0  0  0  0  0  0  0
    3.9559   50.1343   31.9351 H   0  0  0  0  0  0  0  0  0  0  0  0
    4.7358   50.3318   36.1537 H   0  0  0  0  0  0  0  0  0  0  0  0
    3.1472   50.4655   34.2551 H   0  0  0  0  0  0  0  0  0  0  0  0
    9.8317   40.7398   31.7544 H   0  0  0  0  0  0  0  0  0  0  0  0
   11.4014   41.5436   31.4731 H   0  0  0  0  0  0  0  0  0  0  0  0
   11.6982   39.5042   30.3469 H   0  0  0  0  0  0  0  0  0  0  0  0
   10.1090   38.2631   32.6649 H   0  0  0  0  0  0  0  0  0  0  0  0
   13.6656   37.4540   31.2207 H   0  0  0  0  0  0  0  0  0  0  0  0
    8.8965   38.6899   30.8852 H   0  0  0  0  0  0  0  0  0  0  0  0
   11.2846   36.3060   32.5175 H   0  0  0  0  0  0  0  0  0  0  0  0
   10.8524   35.7094   30.4590 H   0  0  0  0  0  0  0  0  0  0  0  0
   12.3353   38.3588   34.7439 H   0  0  0  0  0  0  0  0  0  0  0  0
   16.7570   34.1788   32.4619 H   0  0  0  0  0  0  0  0  0  0  0  0
   15.3529   35.7359   37.5136 H   0  0  0  0  0  0  0  0  0  0  0  0
   16.6360   34.5317   37.1413 H   0  0  0  0  0  0  0  0  0  0  0  0
  1  2  2  0
  1  3  1  0
  3  4  1  0
  4  5  1  0
  6  1  1  0
  7  6  1  0
  6  8  1  0
  8  9  1  0
  9 10  1  0
  9 11  2  0
 10 12  1  0
 12 13  1  0
 13 14  2  0
 15 13  1  0
 14 16  1  0
 17 15  2  0
 16 18  2  0
 18 17  1  0
  4 19  2  0
  4 20  1  0
 21 20  1  0
 21 22  1  0
 22 23  1  0
 22 24  1  0
 23 25  1  0
 24 26  1  0
 24 27  1  0
 27 25  1  0
 25 28  1  0
 27 29  1  0
 30 28  1  0
 31 28  1  0
 32 30  2  0
 30 33  1  0
 34 31  2  0
 35 32  1  0
 33 36  2  0
 33 34  1  0
 37 35  2  0
 37 36  1  0
 36 38  1  0
  6 39  1  6
  7 40  1  0
  7 41  1  0
  8 42  1  0
  8 43  1  0
 12 44  1  0
 12 45  1  0
 14 46  1  0
 15 47  1  0
 16 48  1  0
 17 49  1  0
 18 50  1  0
 21 51  1  0
 21 52  1  0
 22 53  1  0
 24 54  1  0
 25 55  1  0
 26 56  1  0
 27 57  1  0
 29 58  1  0
 31 59  1  0
 35 60  1  0
 38 61  1  0
 38 62  1  0
M  CHG  1   5  -1
M  END
>  <EmbedRMS>  (58) 
0.08996891725950687

$$$$

     RDKit          3D

 62 65  0  0  0  0  0  0  0  0999 V2000
   10.2862   43.7710   33.8099 C   0  0  0  0  0  0  0  0  0  0  0  0
   11.4100   43.5818   34.3616 O   0  0  0  0  0  0  0  0  0  0  0  0
    9.3669   42.7308   33.7020 O   0  0  0  0  0  0  0  0  0  0  0  0
    9.8847   41.2330   34.2845 P   0  0  0  0  0  5  0  0  0  0  0  0
   10.3648   41.4677   35.8752 O   0  0  0  0  0  1  0  0  0  0  0  0
    9.9606   45.1125   33.2473 C   0  0  2  0  0  0  0  0  0  0  0  0
   11.0656   46.0480   33.4748 N   0  0  0  0  0  0  0  0  0  0  0  0
    8.6647   45.6567   33.8716 C   0  0  0  0  0  0  0  0  0  0  0  0
    8.2793   46.9662   33.2566 C   0  0  0  0  0  0  0  0  0  0  0  0
    8.7607   48.1540   33.8134 O   0  0  0  0  0  0  0  0  0  0  0  0
    7.5613   46.9852   32.2196 O   0  0  0  0  0  0  0  0  0  0  0  0
    8.4757   49.4333   33.2594 C   0  0  0  0  0  0  0  0  0  0  0  0
    9.1618   50.4883   34.0762 C   0  0  0  0  0  0  0  0  0  0  0  0
    8.4974   51.0946   35.1551 C   0  0  0  0  0  0  0  0  0  0  0  0
   10.4987   50.8279   33.8112 C   0  0  0  0  0  0  0  0  0  0  0  0
    9.1535   52.0495   35.9386 C   0  0  0  0  0  0  0  0  0  0  0  0
   11.1512   51.7831   34.5972 C   0  0  0  0  0  0  0  0  0  0  0  0
   10.4784   52.3953   35.6583 C   0  0  0  0  0  0  0  0  0  0  0  0
    8.8073   40.1902   34.2076 O   0  0  0  0  0  0  0  0  0  0  0  0
   11.2377   40.7903   33.3696 O   0  0  0  0  0  0  0  0  0  0  0  0
   10.9187   40.6904   31.9961 C   0  0  0  0  0  0  0  0  0  0  0  0
   11.5175   39.3823   31.4411 C   0  0  0  0  0  0  0  0  0  0  0  0
   12.7494   39.0893   32.0756 O   0  0  0  0  0  0  0  0  0  0  0  0
   10.6036   38.1899   31.6659 C   0  0  0  0  0  0  0  0  0  0  0  0
   12.9401   37.6834   32.0276 C   0  0  0  0  0  0  0  0  0  0  0  0
    9.6376   38.0785   30.6474 O   0  0  0  0  0  0  0  0  0  0  0  0
   11.5804   37.0203   31.6937 C   0  0  0  0  0  0  0  0  0  0  0  0
   13.4902   37.2177   33.3237 N   0  0  0  0  0  0  0  0  0  0  0  0
   11.6118   36.3193   30.4680 O   0  0  0  0  0  0  0  0  0  0  0  0
   14.4759   36.3271   33.5731 C   0  0  0  0  0  0  0  0  0  0  0  0
   13.1176   37.6317   34.5688 C   0  0  0  0  0  0  0  0  0  0  0  0
   15.2064   35.6141   32.6742 N   0  0  0  0  0  0  0  0  0  0  0  0
   14.6729   36.2274   34.9184 C   0  0  0  0  0  0  0  0  0  0  0  0
   13.8221   37.0457   35.5783 N   0  0  0  0  0  0  0  0  0  0  0  0
   16.1637   34.7597   33.1549 C   0  0  0  0  0  0  0  0  0  0  0  0
   15.6514   35.3493   35.4133 C   0  0  0  0  0  0  0  0  0  0  0  0
   16.3791   34.6312   34.5044 N   0  0  0  0  0  0  0  0  0  0  0  0
   15.9001   35.1935   36.8091 N   0  0  0  0  0  0  0  0  0  0  0  0
    9.8094   44.9956   32.1512 H   0  0  0  0  0  0  0  0  0  0  0  0
   11.9223   45.7018   32.9834 H   0  0  0  0  0  0  0  0  0  0  0  0
   11.2746   46.1197   34.4982 H   0  0  0  0  0  0  0  0  0  0  0  0
    7.8352   44.9317   33.7176 H   0  0  0  0  0  0  0  0  0  0  0  0
    8.7967   45.7921   34.9675 H   0  0  0  0  0  0  0  0  0  0  0  0
    8.8346   49.4750   32.2075 H   0  0  0  0  0  0  0  0  0  0  0  0
    7.3766   49.6032   33.2542 H   0  0  0  0  0  0  0  0  0  0  0  0
    7.4741   50.8282   35.3894 H   0  0  0  0  0  0  0  0  0  0  0  0
   11.0344   50.3531   32.9984 H   0  0  0  0  0  0  0  0  0  0  0  0
    8.6359   52.5184   36.7655 H   0  0  0  0  0  0  0  0  0  0  0  0
   12.1798   52.0458   34.3860 H   0  0  0  0  0  0  0  0  0  0  0  0
   10.9852   53.1333   36.2666 H   0  0  0  0  0  0  0  0  0  0  0  0
   11.3998   41.5454   31.4747 H   0  0  0  0  0  0  0  0  0  0  0  0
    9.8308   40.7397   31.7558 H   0  0  0  0  0  0  0  0  0  0  0  0
   11.6989   39.5091   30.3489 H   0  0  0  0  0  0  0  0  0  0  0  0
   10.1130   38.2588   32.6664 H   0  0  0  0  0  0  0  0  0  0  0  0
   13.6800   37.4628   31.2265 H   0  0  0  0  0  0  0  0  0  0  0  0
    8.8952   38.6907   30.8891 H   0  0  0  0  0  0  0  0  0  0  0  0
   11.2831   36.3060   32.4929 H   0  0  0  0  0  0  0  0  0  0  0  0
   11.8859   36.9589   29.7593 H   0  0  0  0  0  0  0  0  0  0  0  0
   12.3360   38.3600   34.7441 H   0  0  0  0  0  0  0  0  0  0  0  0
   16.7572   34.1793   32.4621 H   0  0  0  0  0  0  0  0  0  0  0  0
   15.3528   35.7356   37.5140 H   0  0  0  0  0  0  0  0  0  0  0  0
   16.6362   34.5318   37.1416 H   0  0  0  0  0  0  0  0  0  0  0  0
  1  2  2  0
  1  3  1  0
  3  4  1  0
  4  5  1  0
  6  1  1  0
  7  6  1  0
  6  8  1  0
  8  9  1  0
  9 10  1  0
  9 11  2  0
 10 12  1  0
 12 13  1  0
 13 14  2  0
 15 13  1  0
 14 16  1  0
 17 15  2  0
 16 18  2  0
 18 17  1  0
  4 19  2  0
  4 20  1  0
 21 20  1  0
 21 22  1  0
 22 23  1  0
 22 24  1  0
 23 25  1  0
 24 26  1  0
 24 27  1  0
 27 25  1  0
 25 28  1  0
 27 29  1  0
 30 28  1  0
 31 28  1  0
 32 30  2  0
 30 33  1  0
 34 31  2  0
 35 32  1  0
 33 36  2  0
 33 34  1  0
 37 35  2  0
 37 36  1  0
 36 38  1  0
  6 39  1  6
  7 40  1  0
  7 41  1  0
  8 42  1  0
  8 43  1  0
 12 44  1  0
 12 45  1  0
 14 46  1  0
 15 47  1  0
 16 48  1  0
 17 49  1  0
 18 50  1  0
 21 51  1  0
 21 52  1  0
 22 53  1  0
 24 54  1  0
 25 55  1  0
 26 56  1  0
 27 57  1  0
 29 58  1  0
 31 59  1  0
 35 60  1  0
 38 61  1  0
 38 62  1  0
M  CHG  1   5  -1
M  END
>  <EmbedRMS>  (59) 
0.08884080667623431

$$$$

     RDKit          3D

 62 65  0  0  0  0  0  0  0  0999 V2000
   10.2830   43.7754   33.8077 C   0  0  0  0  0  0  0  0  0  0  0  0
   11.4086   43.5913   34.3578 O   0  0  0  0  0  0  0  0  0  0  0  0
    9.3669   42.7317   33.7012 O   0  0  0  0  0  0  0  0  0  0  0  0
    9.8864   41.2344   34.2838 P   0  0  0  0  0  5  0  0  0  0  0  0
   10.3666   41.4694   35.8744 O   0  0  0  0  0  1  0  0  0  0  0  0
    9.9536   45.1116   33.2433 C   0  0  2  0  0  0  0  0  0  0  0  0
   11.0723   46.0270   33.4848 N   0  0  0  0  0  0  0  0  0  0  0  0
    8.6403   45.6444   33.8539 C   0  0  0  0  0  0  0  0  0  0  0  0
    8.2189   46.9287   33.2105 C   0  0  0  0  0  0  0  0  0  0  0  0
    7.6591   46.9027   31.9283 O   0  0  0  0  0  0  0  0  0  0  0  0
    8.4005   48.0214   33.8138 O   0  0  0  0  0  0  0  0  0  0  0  0
    7.2132   48.0721   31.2453 C   0  0  0  0  0  0  0  0  0  0  0  0
    5.9494   48.5957   31.8711 C   0  0  0  0  0  0  0  0  0  0  0  0
    5.9485   49.8109   32.5762 C   0  0  0  0  0  0  0  0  0  0  0  0
    4.7611   47.8532   31.7764 C   0  0  0  0  0  0  0  0  0  0  0  0
    4.7720   50.2787   33.1702 C   0  0  0  0  0  0  0  0  0  0  0  0
    3.5868   48.3246   32.3717 C   0  0  0  0  0  0  0  0  0  0  0  0
    3.5920   49.5367   33.0675 C   0  0  0  0  0  0  0  0  0  0  0  0
    8.8090   40.1914   34.2078 O   0  0  0  0  0  0  0  0  0  0  0  0
   11.2387   40.7910   33.3680 O   0  0  0  0  0  0  0  0  0  0  0  0
   10.9186   40.6889   31.9945 C   0  0  0  0  0  0  0  0  0  0  0  0
   11.5180   39.3800   31.4398 C   0  0  0  0  0  0  0  0  0  0  0  0
   12.7483   39.0876   32.0750 O   0  0  0  0  0  0  0  0  0  0  0  0
   10.6053   38.1875   31.6656 C   0  0  0  0  0  0  0  0  0  0  0  0
   12.9361   37.6816   32.0288 C   0  0  0  0  0  0  0  0  0  0  0  0
    9.6423   38.0738   30.6445 O   0  0  0  0  0  0  0  0  0  0  0  0
   11.5765   37.0158   31.7046 C   0  0  0  0  0  0  0  0  0  0  0  0
   13.4908   37.2183   33.3237 N   0  0  0  0  0  0  0  0  0  0  0  0
   11.6102   36.3399   30.4680 O   0  0  0  0  0  0  0  0  0  0  0  0
   14.4762   36.3273   33.5728 C   0  0  0  0  0  0  0  0  0  0  0  0
   13.1181   37.6318   34.5689 C   0  0  0  0  0  0  0  0  0  0  0  0
   15.2063   35.6141   32.6739 N   0  0  0  0  0  0  0  0  0  0  0  0
   14.6733   36.2275   34.9182 C   0  0  0  0  0  0  0  0  0  0  0  0
   13.8226   37.0457   35.5783 N   0  0  0  0  0  0  0  0  0  0  0  0
   16.1635   34.7595   33.1546 C   0  0  0  0  0  0  0  0  0  0  0  0
   15.6515   35.3492   35.4130 C   0  0  0  0  0  0  0  0  0  0  0  0
   16.3791   34.6310   34.5041 N   0  0  0  0  0  0  0  0  0  0  0  0
   15.9002   35.1933   36.8089 N   0  0  0  0  0  0  0  0  0  0  0  0
    9.8215   44.9848   32.1455 H   0  0  0  0  0  0  0  0  0  0  0  0
   10.9386   46.8875   32.9059 H   0  0  0  0  0  0  0  0  0  0  0  0
   11.0794   46.3209   34.4895 H   0  0  0  0  0  0  0  0  0  0  0  0
    7.8264   44.9032   33.6992 H   0  0  0  0  0  0  0  0  0  0  0  0
    8.7569   45.7898   34.9507 H   0  0  0  0  0  0  0  0  0  0  0  0
    8.0182   48.8397   31.2424 H   0  0  0  0  0  0  0  0  0  0  0  0
    7.0076   47.8078   30.1865 H   0  0  0  0  0  0  0  0  0  0  0  0
    6.8562   50.3943   32.6685 H   0  0  0  0  0  0  0  0  0  0  0  0
    4.7463   46.9103   31.2437 H   0  0  0  0  0  0  0  0  0  0  0  0
    4.7755   51.2158   33.7118 H   0  0  0  0  0  0  0  0  0  0  0  0
    2.6732   47.7493   32.2951 H   0  0  0  0  0  0  0  0  0  0  0  0
    2.6826   49.8999   33.5284 H   0  0  0  0  0  0  0  0  0  0  0  0
   11.3985   41.5435   31.4715 H   0  0  0  0  0  0  0  0  0  0  0  0
    9.8305   40.7372   31.7553 H   0  0  0  0  0  0  0  0  0  0  0  0
   11.7002   39.5044   30.3473 H   0  0  0  0  0  0  0  0  0  0  0  0
   10.1104   38.2619   32.6637 H   0  0  0  0  0  0  0  0  0  0  0  0
   13.6696   37.4587   31.2222 H   0  0  0  0  0  0  0  0  0  0  0  0
    8.8999   38.6881   30.8814 H   0  0  0  0  0  0  0  0  0  0  0  0
   11.2690   36.3069   32.5091 H   0  0  0  0  0  0  0  0  0  0  0  0
   12.1427   35.5151   30.6153 H   0  0  0  0  0  0  0  0  0  0  0  0
   12.3359   38.3593   34.7445 H   0  0  0  0  0  0  0  0  0  0  0  0
   16.7569   34.1789   32.4618 H   0  0  0  0  0  0  0  0  0  0  0  0
   15.3530   35.7356   37.5138 H   0  0  0  0  0  0  0  0  0  0  0  0
   16.6362   34.5315   37.1413 H   0  0  0  0  0  0  0  0  0  0  0  0
  1  2  2  0
  1  3  1  0
  3  4  1  0
  4  5  1  0
  6  1  1  0
  7  6  1  0
  6  8  1  0
  8  9  1  0
  9 10  1  0
  9 11  2  0
 10 12  1  0
 12 13  1  0
 13 14  2  0
 15 13  1  0
 14 16  1  0
 17 15  2  0
 16 18  2  0
 18 17  1  0
  4 19  2  0
  4 20  1  0
 21 20  1  0
 21 22  1  0
 22 23  1  0
 22 24  1  0
 23 25  1  0
 24 26  1  0
 24 27  1  0
 27 25  1  0
 25 28  1  0
 27 29  1  0
 30 28  1  0
 31 28  1  0
 32 30  2  0
 30 33  1  0
 34 31  2  0
 35 32  1  0
 33 36  2  0
 33 34  1  0
 37 35  2  0
 37 36  1  0
 36 38  1  0
  6 39  1  6
  7 40  1  0
  7 41  1  0
  8 42  1  0
  8 43  1  0
 12 44  1  0
 12 45  1  0
 14 46  1  0
 15 47  1  0
 16 48  1  0
 17 49  1  0
 18 50  1  0
 21 51  1  0
 21 52  1  0
 22 53  1  0
 24 54  1  0
 25 55  1  0
 26 56  1  0
 27 57  1  0
 29 58  1  0
 31 59  1  0
 35 60  1  0
 38 61  1  0
 38 62  1  0
M  CHG  1   5  -1
M  END
>  <EmbedRMS>  (60) 
0.08904389498003237

$$$$

     RDKit          3D

 62 65  0  0  0  0  0  0  0  0999 V2000
   10.2797   43.7758   33.8100 C   0  0  0  0  0  0  0  0  0  0  0  0
   11.4063   43.5907   34.3580 O   0  0  0  0  0  0  0  0  0  0  0  0
    9.3674   42.7295   33.6979 O   0  0  0  0  0  0  0  0  0  0  0  0
    9.8864   41.2337   34.2828 P   0  0  0  0  0  5  0  0  0  0  0  0
   10.3666   41.4704   35.8733 O   0  0  0  0  0  1  0  0  0  0  0  0
    9.9461   45.1200   33.2586 C   0  0  2  0  0  0  0  0  0  0  0  0
   11.0804   46.0215   33.4701 N   0  0  0  0  0  0  0  0  0  0  0  0
    8.6723   45.7029   33.9098 C   0  0  0  0  0  0  0  0  0  0  0  0
    7.4391   44.9479   33.5176 C   0  0  0  0  0  0  0  0  0  0  0  0
    7.0227   44.9547   32.1817 O   0  0  0  0  0  0  0  0  0  0  0  0
    6.7878   44.3156   34.3933 O   0  0  0  0  0  0  0  0  0  0  0  0
    5.8872   44.2315   31.7127 C   0  0  0  0  0  0  0  0  0  0  0  0
    6.1873   42.7584   31.6575 C   0  0  0  0  0  0  0  0  0  0  0  0
    5.6596   41.8839   32.6221 C   0  0  0  0  0  0  0  0  0  0  0  0
    7.0223   42.2491   30.6497 C   0  0  0  0  0  0  0  0  0  0  0  0
    5.9498   40.5173   32.5668 C   0  0  0  0  0  0  0  0  0  0  0  0
    7.3028   40.8804   30.5930 C   0  0  0  0  0  0  0  0  0  0  0  0
    6.7681   40.0155   31.5516 C   0  0  0  0  0  0  0  0  0  0  0  0
    8.8096   40.1903   34.2091 O   0  0  0  0  0  0  0  0  0  0  0  0
   11.2387   40.7901   33.3670 O   0  0  0  0  0  0  0  0  0  0  0  0
   10.9170   40.6858   31.9941 C   0  0  0  0  0  0  0  0  0  0  0  0
   11.5170   39.3779   31.4395 C   0  0  0  0  0  0  0  0  0  0  0  0
   12.7475   39.0853   32.0737 O   0  0  0  0  0  0  0  0  0  0  0  0
   10.6042   38.1875   31.6662 C   0  0  0  0  0  0  0  0  0  0  0  0
   12.9343   37.6790   32.0282 C   0  0  0  0  0  0  0  0  0  0  0  0
    9.6392   38.0922   30.6466 O   0  0  0  0  0  0  0  0  0  0  0  0
   11.5756   37.0134   31.7060 C   0  0  0  0  0  0  0  0  0  0  0  0
   13.4908   37.2176   33.3234 N   0  0  0  0  0  0  0  0  0  0  0  0
   11.6231   36.3369   30.4690 O   0  0  0  0  0  0  0  0  0  0  0  0
   14.4764   36.3272   33.5727 C   0  0  0  0  0  0  0  0  0  0  0  0
   13.1181   37.6315   34.5685 C   0  0  0  0  0  0  0  0  0  0  0  0
   15.2065   35.6137   32.6739 N   0  0  0  0  0  0  0  0  0  0  0  0
   14.6735   36.2276   34.9182 C   0  0  0  0  0  0  0  0  0  0  0  0
   13.8226   37.0458   35.5781 N   0  0  0  0  0  0  0  0  0  0  0  0
   16.1638   34.7593   33.1547 C   0  0  0  0  0  0  0  0  0  0  0  0
   15.6516   35.3493   35.4131 C   0  0  0  0  0  0  0  0  0  0  0  0
   16.3792   34.6310   34.5043 N   0  0  0  0  0  0  0  0  0  0  0  0
   15.9002   35.1934   36.8090 N   0  0  0  0  0  0  0  0  0  0  0  0
    9.7844   45.0104   32.1629 H   0  0  0  0  0  0  0  0  0  0  0  0
   11.1466   46.2741   34.4841 H   0  0  0  0  0  0  0  0  0  0  0  0
   10.9065   46.9072   32.9411 H   0  0  0  0  0  0  0  0  0  0  0  0
    8.5410   46.7569   33.5832 H   0  0  0  0  0  0  0  0  0  0  0  0
    8.7797   45.7073   35.0174 H   0  0  0  0  0  0  0  0  0  0  0  0
    5.0062   44.4440   32.3576 H   0  0  0  0  0  0  0  0  0  0  0  0
    5.6368   44.5888   30.6914 H   0  0  0  0  0  0  0  0  0  0  0  0
    5.0232   42.2580   33.4143 H   0  0  0  0  0  0  0  0  0  0  0  0
    7.4498   42.9109   29.9067 H   0  0  0  0  0  0  0  0  0  0  0  0
    5.5407   39.8471   33.3117 H   0  0  0  0  0  0  0  0  0  0  0  0
    7.9422   40.4913   29.8111 H   0  0  0  0  0  0  0  0  0  0  0  0
    6.9901   38.9575   31.5107 H   0  0  0  0  0  0  0  0  0  0  0  0
    9.8292   40.7229   31.7591 H   0  0  0  0  0  0  0  0  0  0  0  0
   11.3899   41.5425   31.4684 H   0  0  0  0  0  0  0  0  0  0  0  0
   11.6988   39.5026   30.3469 H   0  0  0  0  0  0  0  0  0  0  0  0
   10.1064   38.2783   32.6606 H   0  0  0  0  0  0  0  0  0  0  0  0
   13.6668   37.4540   31.2212 H   0  0  0  0  0  0  0  0  0  0  0  0
    8.9893   37.4027   30.9419 H   0  0  0  0  0  0  0  0  0  0  0  0
   11.2850   36.3053   32.5184 H   0  0  0  0  0  0  0  0  0  0  0  0
   10.8707   35.6893   30.4678 H   0  0  0  0  0  0  0  0  0  0  0  0
   12.3354   38.3586   34.7440 H   0  0  0  0  0  0  0  0  0  0  0  0
   16.7571   34.1786   32.4621 H   0  0  0  0  0  0  0  0  0  0  0  0
   16.6361   34.5316   37.1415 H   0  0  0  0  0  0  0  0  0  0  0  0
   15.3530   35.7358   37.5138 H   0  0  0  0  0  0  0  0  0  0  0  0
  1  2  2  0
  1  3  1  0
  3  4  1  0
  4  5  1  0
  6  1  1  0
  7  6  1  0
  6  8  1  0
  8  9  1  0
  9 10  1  0
  9 11  2  0
 10 12  1  0
 12 13  1  0
 13 14  2  0
 15 13  1  0
 14 16  1  0
 17 15  2  0
 16 18  2  0
 18 17  1  0
  4 19  2  0
  4 20  1  0
 21 20  1  0
 21 22  1  0
 22 23  1  0
 22 24  1  0
 23 25  1  0
 24 26  1  0
 24 27  1  0
 27 25  1  0
 25 28  1  0
 27 29  1  0
 30 28  1  0
 31 28  1  0
 32 30  2  0
 30 33  1  0
 34 31  2  0
 35 32  1  0
 33 36  2  0
 33 34  1  0
 37 35  2  0
 37 36  1  0
 36 38  1  0
  6 39  1  6
  7 40  1  0
  7 41  1  0
  8 42  1  0
  8 43  1  0
 12 44  1  0
 12 45  1  0
 14 46  1  0
 15 47  1  0
 16 48  1  0
 17 49  1  0
 18 50  1  0
 21 51  1  0
 21 52  1  0
 22 53  1  0
 24 54  1  0
 25 55  1  0
 26 56  1  0
 27 57  1  0
 29 58  1  0
 31 59  1  0
 35 60  1  0
 38 61  1  0
 38 62  1  0
M  CHG  1   5  -1
M  END
>  <EmbedRMS>  (61) 
0.0891393766443733

$$$$

     RDKit          3D

 62 65  0  0  0  0  0  0  0  0999 V2000
   10.2861   43.7719   33.8035 C   0  0  0  0  0  0  0  0  0  0  0  0
   11.4106   43.5876   34.3555 O   0  0  0  0  0  0  0  0  0  0  0  0
    9.3667   42.7312   33.7007 O   0  0  0  0  0  0  0  0  0  0  0  0
    9.8852   41.2341   34.2841 P   0  0  0  0  0  5  0  0  0  0  0  0
   10.3695   41.4687   35.8729 O   0  0  0  0  0  1  0  0  0  0  0  0
    9.9608   45.1098   33.2377 C   0  0  2  0  0  0  0  0  0  0  0  0
   11.0640   46.0386   33.4930 N   0  0  0  0  0  0  0  0  0  0  0  0
    8.6140   45.6555   33.7651 C   0  0  0  0  0  0  0  0  0  0  0  0
    8.5719   45.7746   35.2606 C   0  0  0  0  0  0  0  0  0  0  0  0
    8.4750   44.6166   36.0361 O   0  0  0  0  0  0  0  0  0  0  0  0
    8.6410   46.9105   35.8045 O   0  0  0  0  0  0  0  0  0  0  0  0
    8.4099   44.6367   37.4571 C   0  0  0  0  0  0  0  0  0  0  0  0
    8.4136   43.2253   37.9688 C   0  0  0  0  0  0  0  0  0  0  0  0
    9.4753   42.7495   38.7571 C   0  0  0  0  0  0  0  0  0  0  0  0
    7.3626   42.3563   37.6323 C   0  0  0  0  0  0  0  0  0  0  0  0
    9.4818   41.4235   39.2021 C   0  0  0  0  0  0  0  0  0  0  0  0
    7.3746   41.0307   38.0771 C   0  0  0  0  0  0  0  0  0  0  0  0
    8.4332   40.5647   38.8614 C   0  0  0  0  0  0  0  0  0  0  0  0
    8.8072   40.1918   34.2106 O   0  0  0  0  0  0  0  0  0  0  0  0
   11.2363   40.7900   33.3663 O   0  0  0  0  0  0  0  0  0  0  0  0
   10.9135   40.6848   31.9935 C   0  0  0  0  0  0  0  0  0  0  0  0
   11.5163   39.3774   31.4395 C   0  0  0  0  0  0  0  0  0  0  0  0
   12.7469   39.0856   32.0741 O   0  0  0  0  0  0  0  0  0  0  0  0
   10.6045   38.1867   31.6671 C   0  0  0  0  0  0  0  0  0  0  0  0
   12.9344   37.6792   32.0283 C   0  0  0  0  0  0  0  0  0  0  0  0
    9.6377   38.0916   30.6489 O   0  0  0  0  0  0  0  0  0  0  0  0
   11.5761   37.0129   31.7057 C   0  0  0  0  0  0  0  0  0  0  0  0
   13.4909   37.2178   33.3234 N   0  0  0  0  0  0  0  0  0  0  0  0
   11.6234   36.3372   30.4684 O   0  0  0  0  0  0  0  0  0  0  0  0
   14.4764   36.3272   33.5728 C   0  0  0  0  0  0  0  0  0  0  0  0
   13.1181   37.6316   34.5686 C   0  0  0  0  0  0  0  0  0  0  0  0
   15.2065   35.6138   32.6739 N   0  0  0  0  0  0  0  0  0  0  0  0
   14.6735   36.2276   34.9182 C   0  0  0  0  0  0  0  0  0  0  0  0
   13.8227   37.0458   35.5782 N   0  0  0  0  0  0  0  0  0  0  0  0
   16.1637   34.7593   33.1548 C   0  0  0  0  0  0  0  0  0  0  0  0
   15.6516   35.3493   35.4131 C   0  0  0  0  0  0  0  0  0  0  0  0
   16.3792   34.6310   34.5043 N   0  0  0  0  0  0  0  0  0  0  0  0
   15.9002   35.1934   36.8090 N   0  0  0  0  0  0  0  0  0  0  0  0
    9.8660   44.9823   32.1370 H   0  0  0  0  0  0  0  0  0  0  0  0
   10.8643   46.9383   32.9982 H   0  0  0  0  0  0  0  0  0  0  0  0
   11.1218   46.2528   34.5154 H   0  0  0  0  0  0  0  0  0  0  0  0
    7.7923   44.9801   33.4425 H   0  0  0  0  0  0  0  0  0  0  0  0
    8.4141   46.6480   33.3052 H   0  0  0  0  0  0  0  0  0  0  0  0
    9.2755   45.2062   37.8614 H   0  0  0  0  0  0  0  0  0  0  0  0
    7.4751   45.1436   37.7805 H   0  0  0  0  0  0  0  0  0  0  0  0
   10.2997   43.3996   39.0220 H   0  0  0  0  0  0  0  0  0  0  0  0
    6.5399   42.7042   37.0197 H   0  0  0  0  0  0  0  0  0  0  0  0
   10.3023   41.0606   39.8073 H   0  0  0  0  0  0  0  0  0  0  0  0
    6.5643   40.3641   37.8116 H   0  0  0  0  0  0  0  0  0  0  0  0
    8.4417   39.5380   39.2038 H   0  0  0  0  0  0  0  0  0  0  0  0
   11.3861   41.5417   31.4675 H   0  0  0  0  0  0  0  0  0  0  0  0
    9.8234   40.7207   31.7573 H   0  0  0  0  0  0  0  0  0  0  0  0
   11.6983   39.5015   30.3469 H   0  0  0  0  0  0  0  0  0  0  0  0
   10.1093   38.2769   32.6630 H   0  0  0  0  0  0  0  0  0  0  0  0
   13.6671   37.4547   31.2213 H   0  0  0  0  0  0  0  0  0  0  0  0
    8.9778   37.4157   30.9534 H   0  0  0  0  0  0  0  0  0  0  0  0
   11.2861   36.3041   32.5177 H   0  0  0  0  0  0  0  0  0  0  0  0
   10.8690   35.6918   30.4657 H   0  0  0  0  0  0  0  0  0  0  0  0
   12.3355   38.3587   34.7441 H   0  0  0  0  0  0  0  0  0  0  0  0
   16.7571   34.1787   32.4621 H   0  0  0  0  0  0  0  0  0  0  0  0
   15.3530   35.7358   37.5138 H   0  0  0  0  0  0  0  0  0  0  0  0
   16.6360   34.5315   37.1415 H   0  0  0  0  0  0  0  0  0  0  0  0
  1  2  2  0
  1  3  1  0
  3  4  1  0
  4  5  1  0
  6  1  1  0
  7  6  1  0
  6  8  1  0
  8  9  1  0
  9 10  1  0
  9 11  2  0
 10 12  1  0
 12 13  1  0
 13 14  2  0
 15 13  1  0
 14 16  1  0
 17 15  2  0
 16 18  2  0
 18 17  1  0
  4 19  2  0
  4 20  1  0
 21 20  1  0
 21 22  1  0
 22 23  1  0
 22 24  1  0
 23 25  1  0
 24 26  1  0
 24 27  1  0
 27 25  1  0
 25 28  1  0
 27 29  1  0
 30 28  1  0
 31 28  1  0
 32 30  2  0
 30 33  1  0
 34 31  2  0
 35 32  1  0
 33 36  2  0
 33 34  1  0
 37 35  2  0
 37 36  1  0
 36 38  1  0
  6 39  1  6
  7 40  1  0
  7 41  1  0
  8 42  1  0
  8 43  1  0
 12 44  1  0
 12 45  1  0
 14 46  1  0
 15 47  1  0
 16 48  1  0
 17 49  1  0
 18 50  1  0
 21 51  1  0
 21 52  1  0
 22 53  1  0
 24 54  1  0
 25 55  1  0
 26 56  1  0
 27 57  1  0
 29 58  1  0
 31 59  1  0
 35 60  1  0
 38 61  1  0
 38 62  1  0
M  CHG  1   5  -1
M  END
>  <EmbedRMS>  (62) 
0.08886165528232255

$$$$

     RDKit          3D

 62 65  0  0  0  0  0  0  0  0999 V2000
   10.2855   43.7717   33.8042 C   0  0  0  0  0  0  0  0  0  0  0  0
   11.4104   43.5871   34.3557 O   0  0  0  0  0  0  0  0  0  0  0  0
    9.3666   42.7311   33.6999 O   0  0  0  0  0  0  0  0  0  0  0  0
    9.8854   41.2343   34.2836 P   0  0  0  0  0  5  0  0  0  0  0  0
   10.3668   41.4698   35.8736 O   0  0  0  0  0  1  0  0  0  0  0  0
    9.9553   45.1130   33.2486 C   0  0  2  0  0  0  0  0  0  0  0  0
   11.0692   46.0343   33.4837 N   0  0  0  0  0  0  0  0  0  0  0  0
    8.6221   45.6647   33.8085 C   0  0  0  0  0  0  0  0  0  0  0  0
    8.5544   45.6248   35.3073 C   0  0  0  0  0  0  0  0  0  0  0  0
    9.1703   46.6326   36.0569 O   0  0  0  0  0  0  0  0  0  0  0  0
    7.9792   44.6588   35.8796 O   0  0  0  0  0  0  0  0  0  0  0  0
    9.3747   46.5390   37.4648 C   0  0  0  0  0  0  0  0  0  0  0  0
   10.4025   45.4821   37.7683 C   0  0  0  0  0  0  0  0  0  0  0  0
   11.7458   45.6895   37.4154 C   0  0  0  0  0  0  0  0  0  0  0  0
   10.0234   44.2596   38.3477 C   0  0  0  0  0  0  0  0  0  0  0  0
   12.6967   44.6902   37.6440 C   0  0  0  0  0  0  0  0  0  0  0  0
   10.9782   43.2642   38.5781 C   0  0  0  0  0  0  0  0  0  0  0  0
   12.3132   43.4785   38.2250 C   0  0  0  0  0  0  0  0  0  0  0  0
    8.8078   40.1915   34.2089 O   0  0  0  0  0  0  0  0  0  0  0  0
   11.2367   40.7906   33.3662 O   0  0  0  0  0  0  0  0  0  0  0  0
   10.9133   40.6844   31.9934 C   0  0  0  0  0  0  0  0  0  0  0  0
   11.5174   39.3774   31.4397 C   0  0  0  0  0  0  0  0  0  0  0  0
   12.7476   39.0870   32.0758 O   0  0  0  0  0  0  0  0  0  0  0  0
   10.6069   38.1852   31.6658 C   0  0  0  0  0  0  0  0  0  0  0  0
   12.9372   37.6812   32.0291 C   0  0  0  0  0  0  0  0  0  0  0  0
    9.6404   38.0883   30.6476 O   0  0  0  0  0  0  0  0  0  0  0  0
   11.5789   37.0134   31.7046 C   0  0  0  0  0  0  0  0  0  0  0  0
   13.4915   37.2183   33.3240 N   0  0  0  0  0  0  0  0  0  0  0  0
   11.6125   36.3389   30.4674 O   0  0  0  0  0  0  0  0  0  0  0  0
   14.4765   36.3272   33.5731 C   0  0  0  0  0  0  0  0  0  0  0  0
   13.1185   37.6318   34.5691 C   0  0  0  0  0  0  0  0  0  0  0  0
   15.2066   35.6140   32.6741 N   0  0  0  0  0  0  0  0  0  0  0  0
   14.6735   36.2274   34.9185 C   0  0  0  0  0  0  0  0  0  0  0  0
   13.8228   37.0456   35.5786 N   0  0  0  0  0  0  0  0  0  0  0  0
   16.1637   34.7593   33.1548 C   0  0  0  0  0  0  0  0  0  0  0  0
   15.6517   35.3491   35.4132 C   0  0  0  0  0  0  0  0  0  0  0  0
   16.3792   34.6309   34.5043 N   0  0  0  0  0  0  0  0  0  0  0  0
   15.9004   35.1933   36.8091 N   0  0  0  0  0  0  0  0  0  0  0  0
    9.8374   44.9924   32.1493 H   0  0  0  0  0  0  0  0  0  0  0  0
   11.1621   46.2341   34.5051 H   0  0  0  0  0  0  0  0  0  0  0  0
   10.8620   46.9413   33.0057 H   0  0  0  0  0  0  0  0  0  0  0  0
    8.4762   46.7117   33.4664 H   0  0  0  0  0  0  0  0  0  0  0  0
    7.7800   45.0695   33.3916 H   0  0  0  0  0  0  0  0  0  0  0  0
    8.4095   46.3299   37.9760 H   0  0  0  0  0  0  0  0  0  0  0  0
    9.7408   47.5190   37.8374 H   0  0  0  0  0  0  0  0  0  0  0  0
   12.0532   46.6210   36.9562 H   0  0  0  0  0  0  0  0  0  0  0  0
    8.9904   44.0737   38.6139 H   0  0  0  0  0  0  0  0  0  0  0  0
   13.7300   44.8538   37.3670 H   0  0  0  0  0  0  0  0  0  0  0  0
   10.6814   42.3233   39.0233 H   0  0  0  0  0  0  0  0  0  0  0  0
   13.0497   42.7047   38.3990 H   0  0  0  0  0  0  0  0  0  0  0  0
    9.8231   40.7188   31.7575 H   0  0  0  0  0  0  0  0  0  0  0  0
   11.3847   41.5415   31.4668 H   0  0  0  0  0  0  0  0  0  0  0  0
   11.7006   39.5020   30.3473 H   0  0  0  0  0  0  0  0  0  0  0  0
   10.1097   38.2751   32.6606 H   0  0  0  0  0  0  0  0  0  0  0  0
   13.6713   37.4593   31.2228 H   0  0  0  0  0  0  0  0  0  0  0  0
    9.0033   37.3836   30.9351 H   0  0  0  0  0  0  0  0  0  0  0  0
   11.2706   36.3049   32.5089 H   0  0  0  0  0  0  0  0  0  0  0  0
   12.1444   35.5137   30.6141 H   0  0  0  0  0  0  0  0  0  0  0  0
   12.3363   38.3594   34.7446 H   0  0  0  0  0  0  0  0  0  0  0  0
   16.7570   34.1787   32.4620 H   0  0  0  0  0  0  0  0  0  0  0  0
   15.3532   35.7356   37.5139 H   0  0  0  0  0  0  0  0  0  0  0  0
   16.6362   34.5314   37.1416 H   0  0  0  0  0  0  0  0  0  0  0  0
  1  2  2  0
  1  3  1  0
  3  4  1  0
  4  5  1  0
  6  1  1  0
  7  6  1  0
  6  8  1  0
  8  9  1  0
  9 10  1  0
  9 11  2  0
 10 12  1  0
 12 13  1  0
 13 14  2  0
 15 13  1  0
 14 16  1  0
 17 15  2  0
 16 18  2  0
 18 17  1  0
  4 19  2  0
  4 20  1  0
 21 20  1  0
 21 22  1  0
 22 23  1  0
 22 24  1  0
 23 25  1  0
 24 26  1  0
 24 27  1  0
 27 25  1  0
 25 28  1  0
 27 29  1  0
 30 28  1  0
 31 28  1  0
 32 30  2  0
 30 33  1  0
 34 31  2  0
 35 32  1  0
 33 36  2  0
 33 34  1  0
 37 35  2  0
 37 36  1  0
 36 38  1  0
  6 39  1  6
  7 40  1  0
  7 41  1  0
  8 42  1  0
  8 43  1  0
 12 44  1  0
 12 45  1  0
 14 46  1  0
 15 47  1  0
 16 48  1  0
 17 49  1  0
 18 50  1  0
 21 51  1  0
 21 52  1  0
 22 53  1  0
 24 54  1  0
 25 55  1  0
 26 56  1  0
 27 57  1  0
 29 58  1  0
 31 59  1  0
 35 60  1  0
 38 61  1  0
 38 62  1  0
M  CHG  1   5  -1
M  END
>  <EmbedRMS>  (63) 
0.08863401870182762

$$$$

     RDKit          3D

 62 65  0  0  0  0  0  0  0  0999 V2000
   10.2799   43.7760   33.8079 C   0  0  0  0  0  0  0  0  0  0  0  0
   11.4058   43.5914   34.3580 O   0  0  0  0  0  0  0  0  0  0  0  0
    9.3676   42.7299   33.6983 O   0  0  0  0  0  0  0  0  0  0  0  0
    9.8863   41.2343   34.2846 P   0  0  0  0  0  5  0  0  0  0  0  0
   10.3661   41.4710   35.8750 O   0  0  0  0  0  1  0  0  0  0  0  0
    9.9520   45.1175   33.2458 C   0  0  2  0  0  0  0  0  0  0  0  0
   11.0762   46.0248   33.4837 N   0  0  0  0  0  0  0  0  0  0  0  0
    8.6554   45.6922   33.8600 C   0  0  0  0  0  0  0  0  0  0  0  0
    7.4315   45.0262   33.3092 C   0  0  0  0  0  0  0  0  0  0  0  0
    6.8351   43.9815   34.0202 O   0  0  0  0  0  0  0  0  0  0  0  0
    6.9672   45.3934   32.1952 O   0  0  0  0  0  0  0  0  0  0  0  0
    5.6781   43.2966   33.5538 C   0  0  0  0  0  0  0  0  0  0  0  0
    5.3624   42.1669   34.4893 C   0  0  0  0  0  0  0  0  0  0  0  0
    5.6780   40.8427   34.1422 C   0  0  0  0  0  0  0  0  0  0  0  0
    4.7962   42.4334   35.7464 C   0  0  0  0  0  0  0  0  0  0  0  0
    5.4161   39.7995   35.0358 C   0  0  0  0  0  0  0  0  0  0  0  0
    4.5347   41.3871   36.6368 C   0  0  0  0  0  0  0  0  0  0  0  0
    4.8437   40.0711   36.2815 C   0  0  0  0  0  0  0  0  0  0  0  0
    8.8114   40.1892   34.2094 O   0  0  0  0  0  0  0  0  0  0  0  0
   11.2379   40.7912   33.3688 O   0  0  0  0  0  0  0  0  0  0  0  0
   10.9152   40.6898   31.9961 C   0  0  0  0  0  0  0  0  0  0  0  0
   11.5267   39.3898   31.4375 C   0  0  0  0  0  0  0  0  0  0  0  0
   12.7506   39.0916   32.0839 O   0  0  0  0  0  0  0  0  0  0  0  0
   10.6119   38.1916   31.6454 C   0  0  0  0  0  0  0  0  0  0  0  0
   12.9427   37.6853   32.0295 C   0  0  0  0  0  0  0  0  0  0  0  0
    9.6067   38.0859   30.6605 O   0  0  0  0  0  0  0  0  0  0  0  0
   11.5843   37.0186   31.6880 C   0  0  0  0  0  0  0  0  0  0  0  0
   13.4898   37.2163   33.3250 N   0  0  0  0  0  0  0  0  0  0  0  0
   11.6199   36.3063   30.4693 O   0  0  0  0  0  0  0  0  0  0  0  0
   14.4758   36.3264   33.5738 C   0  0  0  0  0  0  0  0  0  0  0  0
   13.1175   37.6307   34.5699 C   0  0  0  0  0  0  0  0  0  0  0  0
   15.2065   35.6139   32.6746 N   0  0  0  0  0  0  0  0  0  0  0  0
   14.6731   36.2268   34.9191 C   0  0  0  0  0  0  0  0  0  0  0  0
   13.8224   37.0450   35.5792 N   0  0  0  0  0  0  0  0  0  0  0  0
   16.1640   34.7596   33.1551 C   0  0  0  0  0  0  0  0  0  0  0  0
   15.6517   35.3489   35.4136 C   0  0  0  0  0  0  0  0  0  0  0  0
   16.3795   34.6310   34.5045 N   0  0  0  0  0  0  0  0  0  0  0  0
   15.9006   35.1931   36.8094 N   0  0  0  0  0  0  0  0  0  0  0  0
    9.8231   45.0049   32.1460 H   0  0  0  0  0  0  0  0  0  0  0  0
   10.9163   46.9051   32.9414 H   0  0  0  0  0  0  0  0  0  0  0  0
   11.1081   46.2861   34.4972 H   0  0  0  0  0  0  0  0  0  0  0  0
    8.5862   46.7790   33.6353 H   0  0  0  0  0  0  0  0  0  0  0  0
    8.6729   45.5851   34.9669 H   0  0  0  0  0  0  0  0  0  0  0  0
    4.8188   44.0008   33.5131 H   0  0  0  0  0  0  0  0  0  0  0  0
    5.8587   42.9122   32.5257 H   0  0  0  0  0  0  0  0  0  0  0  0
    6.1297   40.6178   33.1839 H   0  0  0  0  0  0  0  0  0  0  0  0
    4.5610   43.4501   36.0364 H   0  0  0  0  0  0  0  0  0  0  0  0
    5.6607   38.7808   34.7638 H   0  0  0  0  0  0  0  0  0  0  0  0
    4.0961   41.5970   37.6038 H   0  0  0  0  0  0  0  0  0  0  0  0
    4.6429   39.2627   36.9725 H   0  0  0  0  0  0  0  0  0  0  0  0
   11.3813   41.5526   31.4739 H   0  0  0  0  0  0  0  0  0  0  0  0
    9.8248   40.7187   31.7597 H   0  0  0  0  0  0  0  0  0  0  0  0
   11.7315   39.5338   30.3521 H   0  0  0  0  0  0  0  0  0  0  0  0
   10.1212   38.2683   32.6414 H   0  0  0  0  0  0  0  0  0  0  0  0
   13.6880   37.4708   31.2319 H   0  0  0  0  0  0  0  0  0  0  0  0
   10.0253   38.1753   29.7658 H   0  0  0  0  0  0  0  0  0  0  0  0
   11.2794   36.3124   32.4916 H   0  0  0  0  0  0  0  0  0  0  0  0
   11.9868   36.9101   29.7715 H   0  0  0  0  0  0  0  0  0  0  0  0
   12.3364   38.3595   34.7453 H   0  0  0  0  0  0  0  0  0  0  0  0
   16.7576   34.1795   32.4622 H   0  0  0  0  0  0  0  0  0  0  0  0
   15.3532   35.7351   37.5143 H   0  0  0  0  0  0  0  0  0  0  0  0
   16.6368   34.5316   37.1418 H   0  0  0  0  0  0  0  0  0  0  0  0
  1  2  2  0
  1  3  1  0
  3  4  1  0
  4  5  1  0
  6  1  1  0
  7  6  1  0
  6  8  1  0
  8  9  1  0
  9 10  1  0
  9 11  2  0
 10 12  1  0
 12 13  1  0
 13 14  2  0
 15 13  1  0
 14 16  1  0
 17 15  2  0
 16 18  2  0
 18 17  1  0
  4 19  2  0
  4 20  1  0
 21 20  1  0
 21 22  1  0
 22 23  1  0
 22 24  1  0
 23 25  1  0
 24 26  1  0
 24 27  1  0
 27 25  1  0
 25 28  1  0
 27 29  1  0
 30 28  1  0
 31 28  1  0
 32 30  2  0
 30 33  1  0
 34 31  2  0
 35 32  1  0
 33 36  2  0
 33 34  1  0
 37 35  2  0
 37 36  1  0
 36 38  1  0
  6 39  1  6
  7 40  1  0
  7 41  1  0
  8 42  1  0
  8 43  1  0
 12 44  1  0
 12 45  1  0
 14 46  1  0
 15 47  1  0
 16 48  1  0
 17 49  1  0
 18 50  1  0
 21 51  1  0
 21 52  1  0
 22 53  1  0
 24 54  1  0
 25 55  1  0
 26 56  1  0
 27 57  1  0
 29 58  1  0
 31 59  1  0
 35 60  1  0
 38 61  1  0
 38 62  1  0
M  CHG  1   5  -1
M  END
>  <EmbedRMS>  (64) 
0.08671864114152965

$$$$

     RDKit          3D

 62 65  0  0  0  0  0  0  0  0999 V2000
   10.2859   43.7721   33.8047 C   0  0  0  0  0  0  0  0  0  0  0  0
   11.4085   43.5885   34.3610 O   0  0  0  0  0  0  0  0  0  0  0  0
    9.3673   42.7311   33.6995 O   0  0  0  0  0  0  0  0  0  0  0  0
    9.8853   41.2343   34.2839 P   0  0  0  0  0  5  0  0  0  0  0  0
   10.3661   41.4700   35.8743 O   0  0  0  0  0  1  0  0  0  0  0  0
    9.9530   45.1149   33.2534 C   0  0  2  0  0  0  0  0  0  0  0  0
   11.0712   46.0333   33.4766 N   0  0  0  0  0  0  0  0  0  0  0  0
    8.6603   45.6661   33.8885 C   0  0  0  0  0  0  0  0  0  0  0  0
    8.7938   45.8703   35.3685 C   0  0  0  0  0  0  0  0  0  0  0  0
    9.3437   47.0629   35.8515 O   0  0  0  0  0  0  0  0  0  0  0  0
    8.4462   44.9525   36.1610 O   0  0  0  0  0  0  0  0  0  0  0  0
    9.5072   47.3433   37.2399 C   0  0  0  0  0  0  0  0  0  0  0  0
    8.1728   47.6025   37.8842 C   0  0  0  0  0  0  0  0  0  0  0  0
    7.4411   48.7514   37.5422 C   0  0  0  0  0  0  0  0  0  0  0  0
    7.6336   46.6914   38.8080 C   0  0  0  0  0  0  0  0  0  0  0  0
    6.1915   48.9892   38.1231 C   0  0  0  0  0  0  0  0  0  0  0  0
    6.3835   46.9330   39.3864 C   0  0  0  0  0  0  0  0  0  0  0  0
    5.6633   48.0811   39.0450 C   0  0  0  0  0  0  0  0  0  0  0  0
    8.8077   40.1915   34.2086 O   0  0  0  0  0  0  0  0  0  0  0  0
   11.2368   40.7908   33.3672 O   0  0  0  0  0  0  0  0  0  0  0  0
   10.9136   40.6860   31.9946 C   0  0  0  0  0  0  0  0  0  0  0  0
   11.5170   39.3797   31.4409 C   0  0  0  0  0  0  0  0  0  0  0  0
   12.7488   39.0886   32.0762 O   0  0  0  0  0  0  0  0  0  0  0  0
   10.6051   38.1876   31.6659 C   0  0  0  0  0  0  0  0  0  0  0  0
   12.9412   37.6828   32.0278 C   0  0  0  0  0  0  0  0  0  0  0  0
    9.6359   38.0930   30.6503 O   0  0  0  0  0  0  0  0  0  0  0  0
   11.5827   37.0179   31.6936 C   0  0  0  0  0  0  0  0  0  0  0  0
   13.4909   37.2176   33.3239 N   0  0  0  0  0  0  0  0  0  0  0  0
   11.6141   36.3180   30.4675 O   0  0  0  0  0  0  0  0  0  0  0  0
   14.4763   36.3270   33.5733 C   0  0  0  0  0  0  0  0  0  0  0  0
   13.1179   37.6316   34.5689 C   0  0  0  0  0  0  0  0  0  0  0  0
   15.2067   35.6140   32.6744 N   0  0  0  0  0  0  0  0  0  0  0  0
   14.6731   36.2272   34.9186 C   0  0  0  0  0  0  0  0  0  0  0  0
   13.8223   37.0456   35.5785 N   0  0  0  0  0  0  0  0  0  0  0  0
   16.1639   34.7595   33.1551 C   0  0  0  0  0  0  0  0  0  0  0  0
   15.6515   35.3491   35.4134 C   0  0  0  0  0  0  0  0  0  0  0  0
   16.3793   34.6310   34.5045 N   0  0  0  0  0  0  0  0  0  0  0  0
   15.9002   35.1933   36.8093 N   0  0  0  0  0  0  0  0  0  0  0  0
    9.7835   45.0051   32.1585 H   0  0  0  0  0  0  0  0  0  0  0  0
   10.8100   46.9716   33.0947 H   0  0  0  0  0  0  0  0  0  0  0  0
   11.8827   45.7125   32.8985 H   0  0  0  0  0  0  0  0  0  0  0  0
    7.8145   44.9737   33.6829 H   0  0  0  0  0  0  0  0  0  0  0  0
    8.4024   46.6377   33.4146 H   0  0  0  0  0  0  0  0  0  0  0  0
   10.0458   46.5053   37.7346 H   0  0  0  0  0  0  0  0  0  0  0  0
   10.1404   48.2492   37.3466 H   0  0  0  0  0  0  0  0  0  0  0  0
    7.8383   49.4597   36.8256 H   0  0  0  0  0  0  0  0  0  0  0  0
    8.1777   45.7951   39.0785 H   0  0  0  0  0  0  0  0  0  0  0  0
    5.6318   49.8767   37.8572 H   0  0  0  0  0  0  0  0  0  0  0  0
    5.9721   46.2289   40.0982 H   0  0  0  0  0  0  0  0  0  0  0  0
    4.6957   48.2661   39.4931 H   0  0  0  0  0  0  0  0  0  0  0  0
   11.3856   41.5433   31.4688 H   0  0  0  0  0  0  0  0  0  0  0  0
    9.8235   40.7210   31.7580 H   0  0  0  0  0  0  0  0  0  0  0  0
   11.6994   39.5065   30.3488 H   0  0  0  0  0  0  0  0  0  0  0  0
   10.1120   38.2722   32.6632 H   0  0  0  0  0  0  0  0  0  0  0  0
   13.6816   37.4632   31.2269 H   0  0  0  0  0  0  0  0  0  0  0  0
    9.0037   37.3828   30.9349 H   0  0  0  0  0  0  0  0  0  0  0  0
   11.2846   36.3040   32.4928 H   0  0  0  0  0  0  0  0  0  0  0  0
   11.8850   36.9590   29.7588 H   0  0  0  0  0  0  0  0  0  0  0  0
   12.3363   38.3599   34.7441 H   0  0  0  0  0  0  0  0  0  0  0  0
   16.7574   34.1791   32.4623 H   0  0  0  0  0  0  0  0  0  0  0  0
   16.6363   34.5317   37.1418 H   0  0  0  0  0  0  0  0  0  0  0  0
   15.3529   35.7355   37.5141 H   0  0  0  0  0  0  0  0  0  0  0  0
  1  2  2  0
  1  3  1  0
  3  4  1  0
  4  5  1  0
  6  1  1  0
  7  6  1  0
  6  8  1  0
  8  9  1  0
  9 10  1  0
  9 11  2  0
 10 12  1  0
 12 13  1  0
 13 14  2  0
 15 13  1  0
 14 16  1  0
 17 15  2  0
 16 18  2  0
 18 17  1  0
  4 19  2  0
  4 20  1  0
 21 20  1  0
 21 22  1  0
 22 23  1  0
 22 24  1  0
 23 25  1  0
 24 26  1  0
 24 27  1  0
 27 25  1  0
 25 28  1  0
 27 29  1  0
 30 28  1  0
 31 28  1  0
 32 30  2  0
 30 33  1  0
 34 31  2  0
 35 32  1  0
 33 36  2  0
 33 34  1  0
 37 35  2  0
 37 36  1  0
 36 38  1  0
  6 39  1  6
  7 40  1  0
  7 41  1  0
  8 42  1  0
  8 43  1  0
 12 44  1  0
 12 45  1  0
 14 46  1  0
 15 47  1  0
 16 48  1  0
 17 49  1  0
 18 50  1  0
 21 51  1  0
 21 52  1  0
 22 53  1  0
 24 54  1  0
 25 55  1  0
 26 56  1  0
 27 57  1  0
 29 58  1  0
 31 59  1  0
 35 60  1  0
 38 61  1  0
 38 62  1  0
M  CHG  1   5  -1
M  END
>  <EmbedRMS>  (65) 
0.08786872712517195

$$$$

     RDKit          3D

 62 65  0  0  0  0  0  0  0  0999 V2000
   10.2862   43.7717   33.8042 C   0  0  0  0  0  0  0  0  0  0  0  0
   11.4114   43.5870   34.3547 O   0  0  0  0  0  0  0  0  0  0  0  0
    9.3674   42.7307   33.6997 O   0  0  0  0  0  0  0  0  0  0  0  0
    9.8855   41.2341   34.2843 P   0  0  0  0  0  5  0  0  0  0  0  0
   10.3651   41.4706   35.8750 O   0  0  0  0  0  1  0  0  0  0  0  0
    9.9567   45.1116   33.2468 C   0  0  2  0  0  0  0  0  0  0  0  0
   11.0672   46.0363   33.4855 N   0  0  0  0  0  0  0  0  0  0  0  0
    8.6224   45.6576   33.8045 C   0  0  0  0  0  0  0  0  0  0  0  0
    8.6156   45.7708   35.3007 C   0  0  0  0  0  0  0  0  0  0  0  0
    8.3981   44.6254   36.0749 O   0  0  0  0  0  0  0  0  0  0  0  0
    8.8353   46.8865   35.8466 O   0  0  0  0  0  0  0  0  0  0  0  0
    8.3820   44.6334   37.5001 C   0  0  0  0  0  0  0  0  0  0  0  0
    7.1274   45.2905   38.0062 C   0  0  0  0  0  0  0  0  0  0  0  0
    7.1819   46.5345   38.6569 C   0  0  0  0  0  0  0  0  0  0  0  0
    5.8828   44.6722   37.8044 C   0  0  0  0  0  0  0  0  0  0  0  0
    6.0068   47.1453   39.1062 C   0  0  0  0  0  0  0  0  0  0  0  0
    4.7101   45.2863   38.2553 C   0  0  0  0  0  0  0  0  0  0  0  0
    4.7721   46.5215   38.9064 C   0  0  0  0  0  0  0  0  0  0  0  0
    8.8080   40.1913   34.2084 O   0  0  0  0  0  0  0  0  0  0  0  0
   11.2383   40.7898   33.3692 O   0  0  0  0  0  0  0  0  0  0  0  0
   10.9194   40.6894   31.9953 C   0  0  0  0  0  0  0  0  0  0  0  0
   11.5171   39.3802   31.4399 C   0  0  0  0  0  0  0  0  0  0  0  0
   12.7479   39.0861   32.0734 O   0  0  0  0  0  0  0  0  0  0  0  0
   10.6031   38.1891   31.6667 C   0  0  0  0  0  0  0  0  0  0  0  0
   12.9335   37.6797   32.0280 C   0  0  0  0  0  0  0  0  0  0  0  0
    9.6397   38.0777   30.6456 O   0  0  0  0  0  0  0  0  0  0  0  0
   11.5739   37.0154   31.7057 C   0  0  0  0  0  0  0  0  0  0  0  0
   13.4903   37.2178   33.3231 N   0  0  0  0  0  0  0  0  0  0  0  0
   11.6211   36.3376   30.4695 O   0  0  0  0  0  0  0  0  0  0  0  0
   14.4761   36.3273   33.5725 C   0  0  0  0  0  0  0  0  0  0  0  0
   13.1179   37.6316   34.5684 C   0  0  0  0  0  0  0  0  0  0  0  0
   15.2063   35.6139   32.6737 N   0  0  0  0  0  0  0  0  0  0  0  0
   14.6733   36.2277   34.9180 C   0  0  0  0  0  0  0  0  0  0  0  0
   13.8225   37.0459   35.5779 N   0  0  0  0  0  0  0  0  0  0  0  0
   16.1636   34.7594   33.1546 C   0  0  0  0  0  0  0  0  0  0  0  0
   15.6515   35.3494   35.4129 C   0  0  0  0  0  0  0  0  0  0  0  0
   16.3791   34.6311   34.5041 N   0  0  0  0  0  0  0  0  0  0  0  0
   15.9001   35.1935   36.8088 N   0  0  0  0  0  0  0  0  0  0  0  0
    9.8403   44.9885   32.1476 H   0  0  0  0  0  0  0  0  0  0  0  0
   10.8569   46.9421   33.0065 H   0  0  0  0  0  0  0  0  0  0  0  0
   11.1539   46.2382   34.5083 H   0  0  0  0  0  0  0  0  0  0  0  0
    7.7921   44.9860   33.4963 H   0  0  0  0  0  0  0  0  0  0  0  0
    8.4146   46.6531   33.3551 H   0  0  0  0  0  0  0  0  0  0  0  0
    9.2948   45.1374   37.8870 H   0  0  0  0  0  0  0  0  0  0  0  0
    8.4090   43.5833   37.8603 H   0  0  0  0  0  0  0  0  0  0  0  0
    8.1307   47.0321   38.8143 H   0  0  0  0  0  0  0  0  0  0  0  0
    5.8223   43.7173   37.2969 H   0  0  0  0  0  0  0  0  0  0  0  0
    6.0532   48.1032   39.6078 H   0  0  0  0  0  0  0  0  0  0  0  0
    3.7533   44.8053   38.0985 H   0  0  0  0  0  0  0  0  0  0  0  0
    3.8636   46.9960   39.2542 H   0  0  0  0  0  0  0  0  0  0  0  0
   11.4011   41.5438   31.4736 H   0  0  0  0  0  0  0  0  0  0  0  0
    9.8316   40.7396   31.7552 H   0  0  0  0  0  0  0  0  0  0  0  0
   11.6981   39.5045   30.3473 H   0  0  0  0  0  0  0  0  0  0  0  0
   10.1089   38.2631   32.6650 H   0  0  0  0  0  0  0  0  0  0  0  0
   13.6656   37.4541   31.2207 H   0  0  0  0  0  0  0  0  0  0  0  0
    8.8965   38.6901   30.8852 H   0  0  0  0  0  0  0  0  0  0  0  0
   11.2846   36.3060   32.5175 H   0  0  0  0  0  0  0  0  0  0  0  0
   10.8523   35.7095   30.4590 H   0  0  0  0  0  0  0  0  0  0  0  0
   12.3353   38.3588   34.7440 H   0  0  0  0  0  0  0  0  0  0  0  0
   16.7570   34.1788   32.4619 H   0  0  0  0  0  0  0  0  0  0  0  0
   16.6360   34.5317   37.1413 H   0  0  0  0  0  0  0  0  0  0  0  0
   15.3529   35.7359   37.5136 H   0  0  0  0  0  0  0  0  0  0  0  0
  1  2  2  0
  1  3  1  0
  3  4  1  0
  4  5  1  0
  6  1  1  0
  7  6  1  0
  6  8  1  0
  8  9  1  0
  9 10  1  0
  9 11  2  0
 10 12  1  0
 12 13  1  0
 13 14  2  0
 15 13  1  0
 14 16  1  0
 17 15  2  0
 16 18  2  0
 18 17  1  0
  4 19  2  0
  4 20  1  0
 21 20  1  0
 21 22  1  0
 22 23  1  0
 22 24  1  0
 23 25  1  0
 24 26  1  0
 24 27  1  0
 27 25  1  0
 25 28  1  0
 27 29  1  0
 30 28  1  0
 31 28  1  0
 32 30  2  0
 30 33  1  0
 34 31  2  0
 35 32  1  0
 33 36  2  0
 33 34  1  0
 37 35  2  0
 37 36  1  0
 36 38  1  0
  6 39  1  6
  7 40  1  0
  7 41  1  0
  8 42  1  0
  8 43  1  0
 12 44  1  0
 12 45  1  0
 14 46  1  0
 15 47  1  0
 16 48  1  0
 17 49  1  0
 18 50  1  0
 21 51  1  0
 21 52  1  0
 22 53  1  0
 24 54  1  0
 25 55  1  0
 26 56  1  0
 27 57  1  0
 29 58  1  0
 31 59  1  0
 35 60  1  0
 38 61  1  0
 38 62  1  0
M  CHG  1   5  -1
M  END
>  <EmbedRMS>  (66) 
0.08933149415243692

$$$$

     RDKit          3D

 62 65  0  0  0  0  0  0  0  0999 V2000
   10.2862   43.7717   33.8042 C   0  0  0  0  0  0  0  0  0  0  0  0
   11.4114   43.5869   34.3545 O   0  0  0  0  0  0  0  0  0  0  0  0
    9.3672   42.7309   33.6999 O   0  0  0  0  0  0  0  0  0  0  0  0
    9.8851   41.2343   34.2847 P   0  0  0  0  0  5  0  0  0  0  0  0
   10.3654   41.4709   35.8751 O   0  0  0  0  0  1  0  0  0  0  0  0
    9.9565   45.1117   33.2471 C   0  0  2  0  0  0  0  0  0  0  0  0
   11.0673   46.0363   33.4855 N   0  0  0  0  0  0  0  0  0  0  0  0
    8.6227   45.6578   33.8058 C   0  0  0  0  0  0  0  0  0  0  0  0
    8.6169   45.7704   35.3022 C   0  0  0  0  0  0  0  0  0  0  0  0
    8.4020   44.6242   36.0760 O   0  0  0  0  0  0  0  0  0  0  0  0
    8.8350   46.8862   35.8484 O   0  0  0  0  0  0  0  0  0  0  0  0
    8.3876   44.6314   37.5012 C   0  0  0  0  0  0  0  0  0  0  0  0
    7.1322   45.2856   38.0092 C   0  0  0  0  0  0  0  0  0  0  0  0
    5.8886   44.6651   37.8079 C   0  0  0  0  0  0  0  0  0  0  0  0
    7.1850   46.5289   38.6614 C   0  0  0  0  0  0  0  0  0  0  0  0
    4.7152   45.2763   38.2608 C   0  0  0  0  0  0  0  0  0  0  0  0
    6.0091   47.1368   39.1127 C   0  0  0  0  0  0  0  0  0  0  0  0
    4.7754   46.5108   38.9133 C   0  0  0  0  0  0  0  0  0  0  0  0
    8.8074   40.1916   34.2093 O   0  0  0  0  0  0  0  0  0  0  0  0
   11.2369   40.7896   33.3689 O   0  0  0  0  0  0  0  0  0  0  0  0
   10.9159   40.6889   31.9956 C   0  0  0  0  0  0  0  0  0  0  0  0
   11.5251   39.3873   31.4367 C   0  0  0  0  0  0  0  0  0  0  0  0
   12.7486   39.0880   32.0804 O   0  0  0  0  0  0  0  0  0  0  0  0
   10.6100   38.1909   31.6471 C   0  0  0  0  0  0  0  0  0  0  0  0
   12.9348   37.6808   32.0292 C   0  0  0  0  0  0  0  0  0  0  0  0
    9.6126   38.0874   30.6547 O   0  0  0  0  0  0  0  0  0  0  0  0
   11.5767   37.0133   31.7026 C   0  0  0  0  0  0  0  0  0  0  0  0
   13.4901   37.2165   33.3236 N   0  0  0  0  0  0  0  0  0  0  0  0
   11.6321   36.3231   30.4741 O   0  0  0  0  0  0  0  0  0  0  0  0
   14.4763   36.3266   33.5727 C   0  0  0  0  0  0  0  0  0  0  0  0
   13.1179   37.6307   34.5689 C   0  0  0  0  0  0  0  0  0  0  0  0
   15.2065   35.6135   32.6739 N   0  0  0  0  0  0  0  0  0  0  0  0
   14.6736   36.2272   34.9182 C   0  0  0  0  0  0  0  0  0  0  0  0
   13.8228   37.0453   35.5783 N   0  0  0  0  0  0  0  0  0  0  0  0
   16.1640   34.7592   33.1547 C   0  0  0  0  0  0  0  0  0  0  0  0
   15.6518   35.3491   35.4131 C   0  0  0  0  0  0  0  0  0  0  0  0
   16.3795   34.6309   34.5042 N   0  0  0  0  0  0  0  0  0  0  0  0
   15.9004   35.1933   36.8089 N   0  0  0  0  0  0  0  0  0  0  0  0
    9.8395   44.9890   32.1480 H   0  0  0  0  0  0  0  0  0  0  0  0
   10.8570   46.9421   33.0065 H   0  0  0  0  0  0  0  0  0  0  0  0
   11.1544   46.2382   34.5082 H   0  0  0  0  0  0  0  0  0  0  0  0
    8.4148   46.6535   33.3569 H   0  0  0  0  0  0  0  0  0  0  0  0
    7.7920   44.9864   33.4979 H   0  0  0  0  0  0  0  0  0  0  0  0
    9.2999   45.1372   37.8873 H   0  0  0  0  0  0  0  0  0  0  0  0
    8.4173   43.5812   37.8608 H   0  0  0  0  0  0  0  0  0  0  0  0
    5.8295   43.7106   37.2993 H   0  0  0  0  0  0  0  0  0  0  0  0
    8.1330   47.0281   38.8185 H   0  0  0  0  0  0  0  0  0  0  0  0
    3.7592   44.7936   38.1043 H   0  0  0  0  0  0  0  0  0  0  0  0
    6.0542   48.0942   39.6155 H   0  0  0  0  0  0  0  0  0  0  0  0
    3.8664   46.9830   39.2626 H   0  0  0  0  0  0  0  0  0  0  0  0
   11.3845   41.5507   31.4741 H   0  0  0  0  0  0  0  0  0  0  0  0
    9.8259   40.7203   31.7582 H   0  0  0  0  0  0  0  0  0  0  0  0
   11.7271   39.5289   30.3504 H   0  0  0  0  0  0  0  0  0  0  0  0
   10.1121   38.2730   32.6391 H   0  0  0  0  0  0  0  0  0  0  0  0
   13.6685   37.4592   31.2224 H   0  0  0  0  0  0  0  0  0  0  0  0
   10.0514   38.1111   29.7648 H   0  0  0  0  0  0  0  0  0  0  0  0
   11.2802   36.3128   32.5195 H   0  0  0  0  0  0  0  0  0  0  0  0
   10.8625   35.6961   30.4645 H   0  0  0  0  0  0  0  0  0  0  0  0
   12.3356   38.3581   34.7445 H   0  0  0  0  0  0  0  0  0  0  0  0
   16.7574   34.1787   32.4619 H   0  0  0  0  0  0  0  0  0  0  0  0
   16.6364   34.5315   37.1415 H   0  0  0  0  0  0  0  0  0  0  0  0
   15.3531   35.7355   37.5138 H   0  0  0  0  0  0  0  0  0  0  0  0
  1  2  2  0
  1  3  1  0
  3  4  1  0
  4  5  1  0
  6  1  1  0
  7  6  1  0
  6  8  1  0
  8  9  1  0
  9 10  1  0
  9 11  2  0
 10 12  1  0
 12 13  1  0
 13 14  2  0
 15 13  1  0
 14 16  1  0
 17 15  2  0
 16 18  2  0
 18 17  1  0
  4 19  2  0
  4 20  1  0
 21 20  1  0
 21 22  1  0
 22 23  1  0
 22 24  1  0
 23 25  1  0
 24 26  1  0
 24 27  1  0
 27 25  1  0
 25 28  1  0
 27 29  1  0
 30 28  1  0
 31 28  1  0
 32 30  2  0
 30 33  1  0
 34 31  2  0
 35 32  1  0
 33 36  2  0
 33 34  1  0
 37 35  2  0
 37 36  1  0
 36 38  1  0
  6 39  1  6
  7 40  1  0
  7 41  1  0
  8 42  1  0
  8 43  1  0
 12 44  1  0
 12 45  1  0
 14 46  1  0
 15 47  1  0
 16 48  1  0
 17 49  1  0
 18 50  1  0
 21 51  1  0
 21 52  1  0
 22 53  1  0
 24 54  1  0
 25 55  1  0
 26 56  1  0
 27 57  1  0
 29 58  1  0
 31 59  1  0
 35 60  1  0
 38 61  1  0
 38 62  1  0
M  CHG  1   5  -1
M  END
>  <EmbedRMS>  (67) 
0.08802475983802963

$$$$

     RDKit          3D

 62 65  0  0  0  0  0  0  0  0999 V2000
   10.2861   43.7710   33.8099 C   0  0  0  0  0  0  0  0  0  0  0  0
   11.4100   43.5818   34.3615 O   0  0  0  0  0  0  0  0  0  0  0  0
    9.3665   42.7311   33.7023 O   0  0  0  0  0  0  0  0  0  0  0  0
    9.8845   41.2331   34.2841 P   0  0  0  0  0  5  0  0  0  0  0  0
   10.3659   41.4676   35.8745 O   0  0  0  0  0  1  0  0  0  0  0  0
    9.9608   45.1122   33.2472 C   0  0  2  0  0  0  0  0  0  0  0  0
   11.0655   46.0481   33.4749 N   0  0  0  0  0  0  0  0  0  0  0  0
    8.6636   45.6564   33.8693 C   0  0  0  0  0  0  0  0  0  0  0  0
    8.2949   46.9748   33.2651 C   0  0  0  0  0  0  0  0  0  0  0  0
    8.7491   48.1547   33.8641 O   0  0  0  0  0  0  0  0  0  0  0  0
    7.6258   47.0093   32.1963 O   0  0  0  0  0  0  0  0  0  0  0  0
    8.6199   49.4378   33.2570 C   0  0  0  0  0  0  0  0  0  0  0  0
    9.5498   49.5501   32.0797 C   0  0  0  0  0  0  0  0  0  0  0  0
   10.9393   49.5032   32.2786 C   0  0  0  0  0  0  0  0  0  0  0  0
    9.0438   49.6672   30.7743 C   0  0  0  0  0  0  0  0  0  0  0  0
   11.8099   49.5783   31.1871 C   0  0  0  0  0  0  0  0  0  0  0  0
    9.9181   49.7431   29.6854 C   0  0  0  0  0  0  0  0  0  0  0  0
   11.2998   49.6990   29.8915 C   0  0  0  0  0  0  0  0  0  0  0  0
    8.8069   40.1905   34.2081 O   0  0  0  0  0  0  0  0  0  0  0  0
   11.2363   40.7907   33.3671 O   0  0  0  0  0  0  0  0  0  0  0  0
   10.9133   40.6860   31.9945 C   0  0  0  0  0  0  0  0  0  0  0  0
   11.5168   39.3797   31.4409 C   0  0  0  0  0  0  0  0  0  0  0  0
   12.7487   39.0887   32.0763 O   0  0  0  0  0  0  0  0  0  0  0  0
   10.6051   38.1876   31.6659 C   0  0  0  0  0  0  0  0  0  0  0  0
   12.9411   37.6829   32.0278 C   0  0  0  0  0  0  0  0  0  0  0  0
    9.6358   38.0930   30.6502 O   0  0  0  0  0  0  0  0  0  0  0  0
   11.5827   37.0179   31.6936 C   0  0  0  0  0  0  0  0  0  0  0  0
   13.4909   37.2177   33.3239 N   0  0  0  0  0  0  0  0  0  0  0  0
   11.6141   36.3180   30.4675 O   0  0  0  0  0  0  0  0  0  0  0  0
   14.4762   36.3270   33.5733 C   0  0  0  0  0  0  0  0  0  0  0  0
   13.1179   37.6316   34.5689 C   0  0  0  0  0  0  0  0  0  0  0  0
   15.2067   35.6140   32.6743 N   0  0  0  0  0  0  0  0  0  0  0  0
   14.6731   36.2273   34.9186 C   0  0  0  0  0  0  0  0  0  0  0  0
   13.8223   37.0456   35.5785 N   0  0  0  0  0  0  0  0  0  0  0  0
   16.1639   34.7595   33.1550 C   0  0  0  0  0  0  0  0  0  0  0  0
   15.6515   35.3491   35.4134 C   0  0  0  0  0  0  0  0  0  0  0  0
   16.3792   34.6310   34.5045 N   0  0  0  0  0  0  0  0  0  0  0  0
   15.9002   35.1933   36.8092 N   0  0  0  0  0  0  0  0  0  0  0  0
    9.8110   44.9955   32.1508 H   0  0  0  0  0  0  0  0  0  0  0  0
   11.2748   46.1197   34.4982 H   0  0  0  0  0  0  0  0  0  0  0  0
   11.9222   45.7038   32.9823 H   0  0  0  0  0  0  0  0  0  0  0  0
    8.7890   45.7787   34.9675 H   0  0  0  0  0  0  0  0  0  0  0  0
    7.8305   44.9392   33.6998 H   0  0  0  0  0  0  0  0  0  0  0  0
    8.8908   50.2135   34.0039 H   0  0  0  0  0  0  0  0  0  0  0  0
    7.5615   49.6142   32.9643 H   0  0  0  0  0  0  0  0  0  0  0  0
   11.3457   49.4027   33.2776 H   0  0  0  0  0  0  0  0  0  0  0  0
    7.9756   49.6952   30.5984 H   0  0  0  0  0  0  0  0  0  0  0  0
   12.8799   49.5405   31.3455 H   0  0  0  0  0  0  0  0  0  0  0  0
    9.5243   49.8334   28.6813 H   0  0  0  0  0  0  0  0  0  0  0  0
   11.9749   49.7563   29.0475 H   0  0  0  0  0  0  0  0  0  0  0  0
   11.3853   41.5434   31.4688 H   0  0  0  0  0  0  0  0  0  0  0  0
    9.8232   40.7210   31.7578 H   0  0  0  0  0  0  0  0  0  0  0  0
   11.6993   39.5065   30.3487 H   0  0  0  0  0  0  0  0  0  0  0  0
   10.1120   38.2722   32.6631 H   0  0  0  0  0  0  0  0  0  0  0  0
   13.6816   37.4633   31.2269 H   0  0  0  0  0  0  0  0  0  0  0  0
    9.0037   37.3827   30.9348 H   0  0  0  0  0  0  0  0  0  0  0  0
   11.2846   36.3040   32.4928 H   0  0  0  0  0  0  0  0  0  0  0  0
   11.8850   36.9590   29.7588 H   0  0  0  0  0  0  0  0  0  0  0  0
   12.3363   38.3599   34.7441 H   0  0  0  0  0  0  0  0  0  0  0  0
   16.7574   34.1790   32.4623 H   0  0  0  0  0  0  0  0  0  0  0  0
   15.3529   35.7356   37.5141 H   0  0  0  0  0  0  0  0  0  0  0  0
   16.6363   34.5317   37.1418 H   0  0  0  0  0  0  0  0  0  0  0  0
  1  2  2  0
  1  3  1  0
  3  4  1  0
  4  5  1  0
  6  1  1  0
  7  6  1  0
  6  8  1  0
  8  9  1  0
  9 10  1  0
  9 11  2  0
 10 12  1  0
 12 13  1  0
 13 14  2  0
 15 13  1  0
 14 16  1  0
 17 15  2  0
 16 18  2  0
 18 17  1  0
  4 19  2  0
  4 20  1  0
 21 20  1  0
 21 22  1  0
 22 23  1  0
 22 24  1  0
 23 25  1  0
 24 26  1  0
 24 27  1  0
 27 25  1  0
 25 28  1  0
 27 29  1  0
 30 28  1  0
 31 28  1  0
 32 30  2  0
 30 33  1  0
 34 31  2  0
 35 32  1  0
 33 36  2  0
 33 34  1  0
 37 35  2  0
 37 36  1  0
 36 38  1  0
  6 39  1  6
  7 40  1  0
  7 41  1  0
  8 42  1  0
  8 43  1  0
 12 44  1  0
 12 45  1  0
 14 46  1  0
 15 47  1  0
 16 48  1  0
 17 49  1  0
 18 50  1  0
 21 51  1  0
 21 52  1  0
 22 53  1  0
 24 54  1  0
 25 55  1  0
 26 56  1  0
 27 57  1  0
 29 58  1  0
 31 59  1  0
 35 60  1  0
 38 61  1  0
 38 62  1  0
M  CHG  1   5  -1
M  END
>  <EmbedRMS>  (68) 
0.08835820839724823

$$$$

     RDKit          3D

 62 65  0  0  0  0  0  0  0  0999 V2000
   10.2873   43.7711   33.8022 C   0  0  0  0  0  0  0  0  0  0  0  0
   11.4095   43.5878   34.3592 O   0  0  0  0  0  0  0  0  0  0  0  0
    9.3681   42.7305   33.6981 O   0  0  0  0  0  0  0  0  0  0  0  0
    9.8853   41.2343   34.2846 P   0  0  0  0  0  5  0  0  0  0  0  0
   10.3645   41.4712   35.8753 O   0  0  0  0  0  1  0  0  0  0  0  0
    9.9518   45.1156   33.2559 C   0  0  2  0  0  0  0  0  0  0  0  0
   11.0706   46.0335   33.4777 N   0  0  0  0  0  0  0  0  0  0  0  0
    8.6625   45.6647   33.9001 C   0  0  0  0  0  0  0  0  0  0  0  0
    8.7972   45.8383   35.3840 C   0  0  0  0  0  0  0  0  0  0  0  0
    8.5666   44.7445   36.2259 O   0  0  0  0  0  0  0  0  0  0  0  0
    9.1574   46.9515   35.8552 O   0  0  0  0  0  0  0  0  0  0  0  0
    8.6842   44.8088   37.6450 C   0  0  0  0  0  0  0  0  0  0  0  0
    7.5372   45.5852   38.2314 C   0  0  0  0  0  0  0  0  0  0  0  0
    7.7487   46.8454   38.8155 C   0  0  0  0  0  0  0  0  0  0  0  0
    6.2351   45.0626   38.1726 C   0  0  0  0  0  0  0  0  0  0  0  0
    6.6719   47.5668   39.3407 C   0  0  0  0  0  0  0  0  0  0  0  0
    5.1612   45.7871   38.6992 C   0  0  0  0  0  0  0  0  0  0  0  0
    5.3794   47.0379   39.2834 C   0  0  0  0  0  0  0  0  0  0  0  0
    8.8079   40.1914   34.2085 O   0  0  0  0  0  0  0  0  0  0  0  0
   11.2381   40.7899   33.3702 O   0  0  0  0  0  0  0  0  0  0  0  0
   10.9191   40.6904   31.9965 C   0  0  0  0  0  0  0  0  0  0  0  0
   11.5176   39.3824   31.4413 C   0  0  0  0  0  0  0  0  0  0  0  0
   12.7496   39.0892   32.0755 O   0  0  0  0  0  0  0  0  0  0  0  0
   10.6036   38.1899   31.6660 C   0  0  0  0  0  0  0  0  0  0  0  0
   12.9401   37.6833   32.0276 C   0  0  0  0  0  0  0  0  0  0  0  0
    9.6377   38.0785   30.6474 O   0  0  0  0  0  0  0  0  0  0  0  0
   11.5804   37.0203   31.6937 C   0  0  0  0  0  0  0  0  0  0  0  0
   13.4902   37.2177   33.3237 N   0  0  0  0  0  0  0  0  0  0  0  0
   11.6117   36.3193   30.4680 O   0  0  0  0  0  0  0  0  0  0  0  0
   14.4759   36.3271   33.5731 C   0  0  0  0  0  0  0  0  0  0  0  0
   13.1176   37.6317   34.5688 C   0  0  0  0  0  0  0  0  0  0  0  0
   15.2064   35.6141   32.6742 N   0  0  0  0  0  0  0  0  0  0  0  0
   14.6729   36.2274   34.9185 C   0  0  0  0  0  0  0  0  0  0  0  0
   13.8221   37.0458   35.5783 N   0  0  0  0  0  0  0  0  0  0  0  0
   16.1637   34.7596   33.1549 C   0  0  0  0  0  0  0  0  0  0  0  0
   15.6514   35.3493   35.4133 C   0  0  0  0  0  0  0  0  0  0  0  0
   16.3791   34.6312   34.5044 N   0  0  0  0  0  0  0  0  0  0  0  0
   15.9001   35.1935   36.8091 N   0  0  0  0  0  0  0  0  0  0  0  0
    9.7771   45.0097   32.1615 H   0  0  0  0  0  0  0  0  0  0  0  0
   10.8082   46.9725   33.0986 H   0  0  0  0  0  0  0  0  0  0  0  0
   11.8802   45.7139   32.8962 H   0  0  0  0  0  0  0  0  0  0  0  0
    7.8161   44.9746   33.6921 H   0  0  0  0  0  0  0  0  0  0  0  0
    8.4031   46.6411   33.4357 H   0  0  0  0  0  0  0  0  0  0  0  0
    8.6631   43.7748   38.0493 H   0  0  0  0  0  0  0  0  0  0  0  0
    9.6655   45.2513   37.9246 H   0  0  0  0  0  0  0  0  0  0  0  0
    8.7438   47.2701   38.8627 H   0  0  0  0  0  0  0  0  0  0  0  0
    6.0535   44.0965   37.7181 H   0  0  0  0  0  0  0  0  0  0  0  0
    6.8393   48.5368   39.7907 H   0  0  0  0  0  0  0  0  0  0  0  0
    4.1595   45.3797   38.6527 H   0  0  0  0  0  0  0  0  0  0  0  0
    4.5472   47.5979   39.6898 H   0  0  0  0  0  0  0  0  0  0  0  0
   11.4003   41.5455   31.4754 H   0  0  0  0  0  0  0  0  0  0  0  0
    9.8312   40.7398   31.7562 H   0  0  0  0  0  0  0  0  0  0  0  0
   11.6989   39.5093   30.3490 H   0  0  0  0  0  0  0  0  0  0  0  0
   10.1130   38.2589   32.6664 H   0  0  0  0  0  0  0  0  0  0  0  0
   13.6800   37.4626   31.2265 H   0  0  0  0  0  0  0  0  0  0  0  0
    8.8954   38.6910   30.8891 H   0  0  0  0  0  0  0  0  0  0  0  0
   11.2830   36.3060   32.4929 H   0  0  0  0  0  0  0  0  0  0  0  0
   11.8860   36.9589   29.7593 H   0  0  0  0  0  0  0  0  0  0  0  0
   12.3360   38.3600   34.7441 H   0  0  0  0  0  0  0  0  0  0  0  0
   16.7572   34.1792   32.4621 H   0  0  0  0  0  0  0  0  0  0  0  0
   15.3528   35.7357   37.5140 H   0  0  0  0  0  0  0  0  0  0  0  0
   16.6362   34.5318   37.1416 H   0  0  0  0  0  0  0  0  0  0  0  0
  1  2  2  0
  1  3  1  0
  3  4  1  0
  4  5  1  0
  6  1  1  0
  7  6  1  0
  6  8  1  0
  8  9  1  0
  9 10  1  0
  9 11  2  0
 10 12  1  0
 12 13  1  0
 13 14  2  0
 15 13  1  0
 14 16  1  0
 17 15  2  0
 16 18  2  0
 18 17  1  0
  4 19  2  0
  4 20  1  0
 21 20  1  0
 21 22  1  0
 22 23  1  0
 22 24  1  0
 23 25  1  0
 24 26  1  0
 24 27  1  0
 27 25  1  0
 25 28  1  0
 27 29  1  0
 30 28  1  0
 31 28  1  0
 32 30  2  0
 30 33  1  0
 34 31  2  0
 35 32  1  0
 33 36  2  0
 33 34  1  0
 37 35  2  0
 37 36  1  0
 36 38  1  0
  6 39  1  6
  7 40  1  0
  7 41  1  0
  8 42  1  0
  8 43  1  0
 12 44  1  0
 12 45  1  0
 14 46  1  0
 15 47  1  0
 16 48  1  0
 17 49  1  0
 18 50  1  0
 21 51  1  0
 21 52  1  0
 22 53  1  0
 24 54  1  0
 25 55  1  0
 26 56  1  0
 27 57  1  0
 29 58  1  0
 31 59  1  0
 35 60  1  0
 38 61  1  0
 38 62  1  0
M  CHG  1   5  -1
M  END
>  <EmbedRMS>  (69) 
0.08834827660759877

$$$$

     RDKit          3D

 62 65  0  0  0  0  0  0  0  0999 V2000
   10.2846   43.7734   33.8090 C   0  0  0  0  0  0  0  0  0  0  0  0
   11.4111   43.5878   34.3561 O   0  0  0  0  0  0  0  0  0  0  0  0
    9.3662   42.7321   33.7039 O   0  0  0  0  0  0  0  0  0  0  0  0
    9.8851   41.2342   34.2845 P   0  0  0  0  0  5  0  0  0  0  0  0
   10.3658   41.4661   35.8748 O   0  0  0  0  0  1  0  0  0  0  0  0
    9.9586   45.1101   33.2423 C   0  0  2  0  0  0  0  0  0  0  0  0
   11.0674   46.0376   33.4826 N   0  0  0  0  0  0  0  0  0  0  0  0
    8.6169   45.6579   33.7812 C   0  0  0  0  0  0  0  0  0  0  0  0
    8.6477   45.9345   35.2553 C   0  0  0  0  0  0  0  0  0  0  0  0
    8.6996   44.8669   36.1585 O   0  0  0  0  0  0  0  0  0  0  0  0
    8.6527   47.1268   35.6668 O   0  0  0  0  0  0  0  0  0  0  0  0
    8.9021   45.0385   37.5592 C   0  0  0  0  0  0  0  0  0  0  0  0
   10.3081   45.5025   37.8288 C   0  0  0  0  0  0  0  0  0  0  0  0
   11.3868   44.6288   37.6183 C   0  0  0  0  0  0  0  0  0  0  0  0
   10.5607   46.8212   38.2425 C   0  0  0  0  0  0  0  0  0  0  0  0
   12.6987   45.0657   37.8248 C   0  0  0  0  0  0  0  0  0  0  0  0
   11.8742   47.2543   38.4494 C   0  0  0  0  0  0  0  0  0  0  0  0
   12.9424   46.3775   38.2406 C   0  0  0  0  0  0  0  0  0  0  0  0
    8.8075   40.1915   34.2078 O   0  0  0  0  0  0  0  0  0  0  0  0
   11.2367   40.7919   33.3671 O   0  0  0  0  0  0  0  0  0  0  0  0
   10.9132   40.6863   31.9947 C   0  0  0  0  0  0  0  0  0  0  0  0
   11.5168   39.3799   31.4411 C   0  0  0  0  0  0  0  0  0  0  0  0
   12.7486   39.0888   32.0765 O   0  0  0  0  0  0  0  0  0  0  0  0
   10.6050   38.1877   31.6660 C   0  0  0  0  0  0  0  0  0  0  0  0
   12.9411   37.6830   32.0279 C   0  0  0  0  0  0  0  0  0  0  0  0
    9.6358   38.0931   30.6503 O   0  0  0  0  0  0  0  0  0  0  0  0
   11.5827   37.0180   31.6937 C   0  0  0  0  0  0  0  0  0  0  0  0
   13.4909   37.2177   33.3240 N   0  0  0  0  0  0  0  0  0  0  0  0
   11.6141   36.3181   30.4675 O   0  0  0  0  0  0  0  0  0  0  0  0
   14.4762   36.3270   33.5733 C   0  0  0  0  0  0  0  0  0  0  0  0
   13.1179   37.6317   34.5689 C   0  0  0  0  0  0  0  0  0  0  0  0
   15.2067   35.6140   32.6744 N   0  0  0  0  0  0  0  0  0  0  0  0
   14.6731   36.2273   34.9186 C   0  0  0  0  0  0  0  0  0  0  0  0
   13.8223   37.0456   35.5785 N   0  0  0  0  0  0  0  0  0  0  0  0
   16.1639   34.7595   33.1550 C   0  0  0  0  0  0  0  0  0  0  0  0
   15.6515   35.3491   35.4134 C   0  0  0  0  0  0  0  0  0  0  0  0
   16.3792   34.6310   34.5045 N   0  0  0  0  0  0  0  0  0  0  0  0
   15.9002   35.1933   36.8093 N   0  0  0  0  0  0  0  0  0  0  0  0
    9.8521   44.9777   32.1434 H   0  0  0  0  0  0  0  0  0  0  0  0
   10.8462   46.9500   33.0214 H   0  0  0  0  0  0  0  0  0  0  0  0
   11.1698   46.2229   34.5074 H   0  0  0  0  0  0  0  0  0  0  0  0
    8.3626   46.5924   33.2346 H   0  0  0  0  0  0  0  0  0  0  0  0
    7.8030   44.9310   33.5709 H   0  0  0  0  0  0  0  0  0  0  0  0
    8.1513   45.7505   37.9668 H   0  0  0  0  0  0  0  0  0  0  0  0
    8.7396   44.0627   38.0638 H   0  0  0  0  0  0  0  0  0  0  0  0
   11.2112   43.6125   37.2915 H   0  0  0  0  0  0  0  0  0  0  0  0
    9.7439   47.5146   38.3993 H   0  0  0  0  0  0  0  0  0  0  0  0
   13.5263   44.3881   37.6600 H   0  0  0  0  0  0  0  0  0  0  0  0
   12.0642   48.2711   38.7680 H   0  0  0  0  0  0  0  0  0  0  0  0
   13.9584   46.7149   38.3991 H   0  0  0  0  0  0  0  0  0  0  0  0
    9.8230   40.7211   31.7585 H   0  0  0  0  0  0  0  0  0  0  0  0
   11.3847   41.5435   31.4684 H   0  0  0  0  0  0  0  0  0  0  0  0
   11.6993   39.5067   30.3490 H   0  0  0  0  0  0  0  0  0  0  0  0
   10.1119   38.2722   32.6632 H   0  0  0  0  0  0  0  0  0  0  0  0
   13.6816   37.4635   31.2270 H   0  0  0  0  0  0  0  0  0  0  0  0
    9.0037   37.3828   30.9349 H   0  0  0  0  0  0  0  0  0  0  0  0
   11.2846   36.3041   32.4929 H   0  0  0  0  0  0  0  0  0  0  0  0
   11.8849   36.9591   29.7589 H   0  0  0  0  0  0  0  0  0  0  0  0
   12.3364   38.3600   34.7442 H   0  0  0  0  0  0  0  0  0  0  0  0
   16.7574   34.1791   32.4623 H   0  0  0  0  0  0  0  0  0  0  0  0
   16.6363   34.5317   37.1418 H   0  0  0  0  0  0  0  0  0  0  0  0
   15.3529   35.7356   37.5141 H   0  0  0  0  0  0  0  0  0  0  0  0
  1  2  2  0
  1  3  1  0
  3  4  1  0
  4  5  1  0
  6  1  1  0
  7  6  1  0
  6  8  1  0
  8  9  1  0
  9 10  1  0
  9 11  2  0
 10 12  1  0
 12 13  1  0
 13 14  2  0
 15 13  1  0
 14 16  1  0
 17 15  2  0
 16 18  2  0
 18 17  1  0
  4 19  2  0
  4 20  1  0
 21 20  1  0
 21 22  1  0
 22 23  1  0
 22 24  1  0
 23 25  1  0
 24 26  1  0
 24 27  1  0
 27 25  1  0
 25 28  1  0
 27 29  1  0
 30 28  1  0
 31 28  1  0
 32 30  2  0
 30 33  1  0
 34 31  2  0
 35 32  1  0
 33 36  2  0
 33 34  1  0
 37 35  2  0
 37 36  1  0
 36 38  1  0
  6 39  1  6
  7 40  1  0
  7 41  1  0
  8 42  1  0
  8 43  1  0
 12 44  1  0
 12 45  1  0
 14 46  1  0
 15 47  1  0
 16 48  1  0
 17 49  1  0
 18 50  1  0
 21 51  1  0
 21 52  1  0
 22 53  1  0
 24 54  1  0
 25 55  1  0
 26 56  1  0
 27 57  1  0
 29 58  1  0
 31 59  1  0
 35 60  1  0
 38 61  1  0
 38 62  1  0
M  CHG  1   5  -1
M  END
>  <EmbedRMS>  (70) 
0.08797401319844662

$$$$

     RDKit          3D

 62 65  0  0  0  0  0  0  0  0999 V2000
   10.2830   43.7718   33.8102 C   0  0  0  0  0  0  0  0  0  0  0  0
   11.4068   43.5824   34.3623 O   0  0  0  0  0  0  0  0  0  0  0  0
    9.3683   42.7284   33.6977 O   0  0  0  0  0  0  0  0  0  0  0  0
    9.8858   41.2321   34.2830 P   0  0  0  0  0  5  0  0  0  0  0  0
   10.3657   41.4687   35.8736 O   0  0  0  0  0  1  0  0  0  0  0  0
    9.9573   45.1192   33.2519 C   0  0  2  0  0  0  0  0  0  0  0  0
   11.0709   46.0442   33.4721 N   0  0  0  0  0  0  0  0  0  0  0  0
    8.6808   45.7039   33.8869 C   0  0  0  0  0  0  0  0  0  0  0  0
    7.4405   45.0406   33.3701 C   0  0  0  0  0  0  0  0  0  0  0  0
    6.8574   44.0025   34.1014 O   0  0  0  0  0  0  0  0  0  0  0  0
    6.9504   45.4040   32.2659 O   0  0  0  0  0  0  0  0  0  0  0  0
    5.6855   43.3211   33.6685 C   0  0  0  0  0  0  0  0  0  0  0  0
    5.3891   42.1971   34.6171 C   0  0  0  0  0  0  0  0  0  0  0  0
    4.8646   42.4726   35.8903 C   0  0  0  0  0  0  0  0  0  0  0  0
    5.6817   40.8690   34.2648 C   0  0  0  0  0  0  0  0  0  0  0  0
    4.6220   41.4315   36.7920 C   0  0  0  0  0  0  0  0  0  0  0  0
    5.4389   39.8310   35.1697 C   0  0  0  0  0  0  0  0  0  0  0  0
    4.9083   40.1117   36.4318 C   0  0  0  0  0  0  0  0  0  0  0  0
    8.8102   40.1880   34.2080 O   0  0  0  0  0  0  0  0  0  0  0  0
   11.2376   40.7898   33.3662 O   0  0  0  0  0  0  0  0  0  0  0  0
   10.9143   40.6848   31.9934 C   0  0  0  0  0  0  0  0  0  0  0  0
   11.5165   39.3773   31.4393 C   0  0  0  0  0  0  0  0  0  0  0  0
   12.7472   39.0854   32.0738 O   0  0  0  0  0  0  0  0  0  0  0  0
   10.6045   38.1868   31.6671 C   0  0  0  0  0  0  0  0  0  0  0  0
   12.9344   37.6790   32.0282 C   0  0  0  0  0  0  0  0  0  0  0  0
    9.6376   38.0918   30.6491 O   0  0  0  0  0  0  0  0  0  0  0  0
   11.5759   37.0129   31.7057 C   0  0  0  0  0  0  0  0  0  0  0  0
   13.4909   37.2177   33.3233 N   0  0  0  0  0  0  0  0  0  0  0  0
   11.6231   36.3371   30.4684 O   0  0  0  0  0  0  0  0  0  0  0  0
   14.4764   36.3272   33.5727 C   0  0  0  0  0  0  0  0  0  0  0  0
   13.1181   37.6315   34.5685 C   0  0  0  0  0  0  0  0  0  0  0  0
   15.2066   35.6138   32.6739 N   0  0  0  0  0  0  0  0  0  0  0  0
   14.6735   36.2276   34.9182 C   0  0  0  0  0  0  0  0  0  0  0  0
   13.8227   37.0457   35.5781 N   0  0  0  0  0  0  0  0  0  0  0  0
   16.1638   34.7593   33.1548 C   0  0  0  0  0  0  0  0  0  0  0  0
   15.6516   35.3493   35.4131 C   0  0  0  0  0  0  0  0  0  0  0  0
   16.3792   34.6309   34.5043 N   0  0  0  0  0  0  0  0  0  0  0  0
   15.9002   35.1934   36.8090 N   0  0  0  0  0  0  0  0  0  0  0  0
    9.8046   45.0166   32.1543 H   0  0  0  0  0  0  0  0  0  0  0  0
   11.9224   45.6908   32.9766 H   0  0  0  0  0  0  0  0  0  0  0  0
   11.2856   46.1151   34.4946 H   0  0  0  0  0  0  0  0  0  0  0  0
    8.6164   46.7891   33.6521 H   0  0  0  0  0  0  0  0  0  0  0  0
    8.7228   45.6078   34.9942 H   0  0  0  0  0  0  0  0  0  0  0  0
    4.8286   44.0291   33.6472 H   0  0  0  0  0  0  0  0  0  0  0  0
    5.8374   42.9314   32.6377 H   0  0  0  0  0  0  0  0  0  0  0  0
    4.6476   43.4923   36.1839 H   0  0  0  0  0  0  0  0  0  0  0  0
    6.1009   40.6370   33.2935 H   0  0  0  0  0  0  0  0  0  0  0  0
    4.2156   41.6484   37.7715 H   0  0  0  0  0  0  0  0  0  0  0  0
    5.6659   38.8093   34.8938 H   0  0  0  0  0  0  0  0  0  0  0  0
    4.7222   39.3073   37.1316 H   0  0  0  0  0  0  0  0  0  0  0  0
   11.3872   41.5415   31.4673 H   0  0  0  0  0  0  0  0  0  0  0  0
    9.8242   40.7212   31.7568 H   0  0  0  0  0  0  0  0  0  0  0  0
   11.6984   39.5013   30.3467 H   0  0  0  0  0  0  0  0  0  0  0  0
   10.1095   38.2772   32.6631 H   0  0  0  0  0  0  0  0  0  0  0  0
   13.6670   37.4543   31.2212 H   0  0  0  0  0  0  0  0  0  0  0  0
    8.9764   37.4175   30.9546 H   0  0  0  0  0  0  0  0  0  0  0  0
   11.2859   36.3041   32.5177 H   0  0  0  0  0  0  0  0  0  0  0  0
   10.8684   35.6923   30.4656 H   0  0  0  0  0  0  0  0  0  0  0  0
   12.3354   38.3586   34.7439 H   0  0  0  0  0  0  0  0  0  0  0  0
   16.7572   34.1786   32.4621 H   0  0  0  0  0  0  0  0  0  0  0  0
   15.3530   35.7358   37.5138 H   0  0  0  0  0  0  0  0  0  0  0  0
   16.6361   34.5316   37.1415 H   0  0  0  0  0  0  0  0  0  0  0  0
  1  2  2  0
  1  3  1  0
  3  4  1  0
  4  5  1  0
  6  1  1  0
  7  6  1  0
  6  8  1  0
  8  9  1  0
  9 10  1  0
  9 11  2  0
 10 12  1  0
 12 13  1  0
 13 14  2  0
 15 13  1  0
 14 16  1  0
 17 15  2  0
 16 18  2  0
 18 17  1  0
  4 19  2  0
  4 20  1  0
 21 20  1  0
 21 22  1  0
 22 23  1  0
 22 24  1  0
 23 25  1  0
 24 26  1  0
 24 27  1  0
 27 25  1  0
 25 28  1  0
 27 29  1  0
 30 28  1  0
 31 28  1  0
 32 30  2  0
 30 33  1  0
 34 31  2  0
 35 32  1  0
 33 36  2  0
 33 34  1  0
 37 35  2  0
 37 36  1  0
 36 38  1  0
  6 39  1  6
  7 40  1  0
  7 41  1  0
  8 42  1  0
  8 43  1  0
 12 44  1  0
 12 45  1  0
 14 46  1  0
 15 47  1  0
 16 48  1  0
 17 49  1  0
 18 50  1  0
 21 51  1  0
 21 52  1  0
 22 53  1  0
 24 54  1  0
 25 55  1  0
 26 56  1  0
 27 57  1  0
 29 58  1  0
 31 59  1  0
 35 60  1  0
 38 61  1  0
 38 62  1  0
M  CHG  1   5  -1
M  END
>  <EmbedRMS>  (71) 
0.08952665529848748

$$$$

     RDKit          3D

 62 65  0  0  0  0  0  0  0  0999 V2000
   10.2844   43.7743   33.8068 C   0  0  0  0  0  0  0  0  0  0  0  0
   11.4069   43.5903   34.3634 O   0  0  0  0  0  0  0  0  0  0  0  0
    9.3680   42.7310   33.6987 O   0  0  0  0  0  0  0  0  0  0  0  0
    9.8862   41.2340   34.2827 P   0  0  0  0  0  5  0  0  0  0  0  0
   10.3670   41.4693   35.8732 O   0  0  0  0  0  1  0  0  0  0  0  0
    9.9493   45.1163   33.2545 C   0  0  2  0  0  0  0  0  0  0  0  0
   11.0752   46.0280   33.4735 N   0  0  0  0  0  0  0  0  0  0  0  0
    8.6782   45.6535   33.9413 C   0  0  0  0  0  0  0  0  0  0  0  0
    8.1750   46.8973   33.2761 C   0  0  0  0  0  0  0  0  0  0  0  0
    7.5638   46.8051   32.0207 O   0  0  0  0  0  0  0  0  0  0  0  0
    8.3271   48.0156   33.8395 O   0  0  0  0  0  0  0  0  0  0  0  0
    7.0339   47.9303   31.3236 C   0  0  0  0  0  0  0  0  0  0  0  0
    5.7729   48.4125   31.9872 C   0  0  0  0  0  0  0  0  0  0  0  0
    4.6195   47.6117   31.9651 C   0  0  0  0  0  0  0  0  0  0  0  0
    5.7418   49.6477   32.6560 C   0  0  0  0  0  0  0  0  0  0  0  0
    3.4491   48.0450   32.5960 C   0  0  0  0  0  0  0  0  0  0  0  0
    4.5693   50.0773   33.2858 C   0  0  0  0  0  0  0  0  0  0  0  0
    3.4238   49.2771   33.2553 C   0  0  0  0  0  0  0  0  0  0  0  0
    8.8082   40.1915   34.2078 O   0  0  0  0  0  0  0  0  0  0  0  0
   11.2374   40.7904   33.3655 O   0  0  0  0  0  0  0  0  0  0  0  0
   10.9138   40.6842   31.9928 C   0  0  0  0  0  0  0  0  0  0  0  0
   11.5176   39.3772   31.4393 C   0  0  0  0  0  0  0  0  0  0  0  0
   12.7478   39.0868   32.0755 O   0  0  0  0  0  0  0  0  0  0  0  0
   10.6069   38.1851   31.6656 C   0  0  0  0  0  0  0  0  0  0  0  0
   12.9372   37.6810   32.0290 C   0  0  0  0  0  0  0  0  0  0  0  0
    9.6404   38.0882   30.6475 O   0  0  0  0  0  0  0  0  0  0  0  0
   11.5789   37.0133   31.7045 C   0  0  0  0  0  0  0  0  0  0  0  0
   13.4915   37.2181   33.3239 N   0  0  0  0  0  0  0  0  0  0  0  0
   11.6125   36.3388   30.4673 O   0  0  0  0  0  0  0  0  0  0  0  0
   14.4766   36.3272   33.5730 C   0  0  0  0  0  0  0  0  0  0  0  0
   13.1184   37.6317   34.5690 C   0  0  0  0  0  0  0  0  0  0  0  0
   15.2066   35.6139   32.6741 N   0  0  0  0  0  0  0  0  0  0  0  0
   14.6735   36.2273   34.9184 C   0  0  0  0  0  0  0  0  0  0  0  0
   13.8228   37.0455   35.5785 N   0  0  0  0  0  0  0  0  0  0  0  0
   16.1638   34.7593   33.1548 C   0  0  0  0  0  0  0  0  0  0  0  0
   15.6517   35.3491   35.4132 C   0  0  0  0  0  0  0  0  0  0  0  0
   16.3792   34.6308   34.5043 N   0  0  0  0  0  0  0  0  0  0  0  0
   15.9004   35.1932   36.8091 N   0  0  0  0  0  0  0  0  0  0  0  0
    9.7645   45.0043   32.1618 H   0  0  0  0  0  0  0  0  0  0  0  0
   10.8430   46.9570   33.0540 H   0  0  0  0  0  0  0  0  0  0  0  0
   11.8939   45.6799   32.9219 H   0  0  0  0  0  0  0  0  0  0  0  0
    7.8676   44.8944   33.8893 H   0  0  0  0  0  0  0  0  0  0  0  0
    8.8842   45.8539   35.0163 H   0  0  0  0  0  0  0  0  0  0  0  0
    7.7998   48.7347   31.2642 H   0  0  0  0  0  0  0  0  0  0  0  0
    6.7980   47.6239   30.2827 H   0  0  0  0  0  0  0  0  0  0  0  0
    4.6288   46.6530   31.4612 H   0  0  0  0  0  0  0  0  0  0  0  0
    6.6229   50.2762   32.6923 H   0  0  0  0  0  0  0  0  0  0  0  0
    2.5623   47.4247   32.5753 H   0  0  0  0  0  0  0  0  0  0  0  0
    4.5494   51.0299   33.7992 H   0  0  0  0  0  0  0  0  0  0  0  0
    2.5175   49.6108   33.7439 H   0  0  0  0  0  0  0  0  0  0  0  0
   11.3852   41.5413   31.4661 H   0  0  0  0  0  0  0  0  0  0  0  0
    9.8236   40.7188   31.7568 H   0  0  0  0  0  0  0  0  0  0  0  0
   11.7008   39.5015   30.3469 H   0  0  0  0  0  0  0  0  0  0  0  0
   10.1098   38.2752   32.6605 H   0  0  0  0  0  0  0  0  0  0  0  0
   13.6713   37.4590   31.2227 H   0  0  0  0  0  0  0  0  0  0  0  0
    9.0032   37.3836   30.9351 H   0  0  0  0  0  0  0  0  0  0  0  0
   11.2705   36.3048   32.5088 H   0  0  0  0  0  0  0  0  0  0  0  0
   12.1442   35.5135   30.6141 H   0  0  0  0  0  0  0  0  0  0  0  0
   12.3362   38.3592   34.7444 H   0  0  0  0  0  0  0  0  0  0  0  0
   16.7571   34.1787   32.4620 H   0  0  0  0  0  0  0  0  0  0  0  0
   15.3532   35.7355   37.5139 H   0  0  0  0  0  0  0  0  0  0  0  0
   16.6363   34.5314   37.1415 H   0  0  0  0  0  0  0  0  0  0  0  0
  1  2  2  0
  1  3  1  0
  3  4  1  0
  4  5  1  0
  6  1  1  0
  7  6  1  0
  6  8  1  0
  8  9  1  0
  9 10  1  0
  9 11  2  0
 10 12  1  0
 12 13  1  0
 13 14  2  0
 15 13  1  0
 14 16  1  0
 17 15  2  0
 16 18  2  0
 18 17  1  0
  4 19  2  0
  4 20  1  0
 21 20  1  0
 21 22  1  0
 22 23  1  0
 22 24  1  0
 23 25  1  0
 24 26  1  0
 24 27  1  0
 27 25  1  0
 25 28  1  0
 27 29  1  0
 30 28  1  0
 31 28  1  0
 32 30  2  0
 30 33  1  0
 34 31  2  0
 35 32  1  0
 33 36  2  0
 33 34  1  0
 37 35  2  0
 37 36  1  0
 36 38  1  0
  6 39  1  6
  7 40  1  0
  7 41  1  0
  8 42  1  0
  8 43  1  0
 12 44  1  0
 12 45  1  0
 14 46  1  0
 15 47  1  0
 16 48  1  0
 17 49  1  0
 18 50  1  0
 21 51  1  0
 21 52  1  0
 22 53  1  0
 24 54  1  0
 25 55  1  0
 26 56  1  0
 27 57  1  0
 29 58  1  0
 31 59  1  0
 35 60  1  0
 38 61  1  0
 38 62  1  0
M  CHG  1   5  -1
M  END
>  <EmbedRMS>  (72) 
0.0888996822227865

$$$$

     RDKit          3D

 62 65  0  0  0  0  0  0  0  0999 V2000
   10.2863   43.7710   33.8096 C   0  0  0  0  0  0  0  0  0  0  0  0
   11.4100   43.5817   34.3614 O   0  0  0  0  0  0  0  0  0  0  0  0
    9.3669   42.7308   33.7016 O   0  0  0  0  0  0  0  0  0  0  0  0
    9.8850   41.2328   34.2832 P   0  0  0  0  0  5  0  0  0  0  0  0
   10.3662   41.4674   35.8737 O   0  0  0  0  0  1  0  0  0  0  0  0
    9.9604   45.1127   33.2479 C   0  0  2  0  0  0  0  0  0  0  0  0
   11.0657   46.0479   33.4748 N   0  0  0  0  0  0  0  0  0  0  0  0
    8.6651   45.6566   33.8739 C   0  0  0  0  0  0  0  0  0  0  0  0
    8.2826   46.9698   33.2650 C   0  0  0  0  0  0  0  0  0  0  0  0
    8.7605   48.1542   33.8320 O   0  0  0  0  0  0  0  0  0  0  0  0
    7.5701   46.9951   32.2243 O   0  0  0  0  0  0  0  0  0  0  0  0
    8.4781   49.4370   33.2847 C   0  0  0  0  0  0  0  0  0  0  0  0
    9.1586   50.4867   34.1129 C   0  0  0  0  0  0  0  0  0  0  0  0
    8.4867   51.0864   35.1910 C   0  0  0  0  0  0  0  0  0  0  0  0
   10.4975   50.8276   33.8598 C   0  0  0  0  0  0  0  0  0  0  0  0
    9.1374   52.0360   35.9852 C   0  0  0  0  0  0  0  0  0  0  0  0
   11.1447   51.7775   34.6565 C   0  0  0  0  0  0  0  0  0  0  0  0
   10.4645   52.3831   35.7167 C   0  0  0  0  0  0  0  0  0  0  0  0
    8.8070   40.1904   34.2076 O   0  0  0  0  0  0  0  0  0  0  0  0
   11.2367   40.7900   33.3660 O   0  0  0  0  0  0  0  0  0  0  0  0
   10.9142   40.6849   31.9931 C   0  0  0  0  0  0  0  0  0  0  0  0
   11.5166   39.3773   31.4393 C   0  0  0  0  0  0  0  0  0  0  0  0
   12.7472   39.0854   32.0739 O   0  0  0  0  0  0  0  0  0  0  0  0
   10.6047   38.1867   31.6669 C   0  0  0  0  0  0  0  0  0  0  0  0
   12.9345   37.6791   32.0282 C   0  0  0  0  0  0  0  0  0  0  0  0
    9.6378   38.0917   30.6488 O   0  0  0  0  0  0  0  0  0  0  0  0
   11.5761   37.0129   31.7056 C   0  0  0  0  0  0  0  0  0  0  0  0
   13.4909   37.2177   33.3233 N   0  0  0  0  0  0  0  0  0  0  0  0
   11.6234   36.3371   30.4684 O   0  0  0  0  0  0  0  0  0  0  0  0
   14.4765   36.3272   33.5727 C   0  0  0  0  0  0  0  0  0  0  0  0
   13.1182   37.6315   34.5685 C   0  0  0  0  0  0  0  0  0  0  0  0
   15.2066   35.6137   32.6739 N   0  0  0  0  0  0  0  0  0  0  0  0
   14.6736   36.2276   34.9182 C   0  0  0  0  0  0  0  0  0  0  0  0
   13.8227   37.0457   35.5781 N   0  0  0  0  0  0  0  0  0  0  0  0
   16.1638   34.7593   33.1548 C   0  0  0  0  0  0  0  0  0  0  0  0
   15.6517   35.3493   35.4131 C   0  0  0  0  0  0  0  0  0  0  0  0
   16.3792   34.6309   34.5043 N   0  0  0  0  0  0  0  0  0  0  0  0
   15.9003   35.1934   36.8090 N   0  0  0  0  0  0  0  0  0  0  0  0
    9.8080   44.9966   32.1518 H   0  0  0  0  0  0  0  0  0  0  0  0
   11.2754   46.1194   34.4981 H   0  0  0  0  0  0  0  0  0  0  0  0
   11.9221   45.7016   32.9829 H   0  0  0  0  0  0  0  0  0  0  0  0
    7.8345   44.9339   33.7161 H   0  0  0  0  0  0  0  0  0  0  0  0
    8.7969   45.7868   34.9705 H   0  0  0  0  0  0  0  0  0  0  0  0
    8.8437   49.4859   32.2354 H   0  0  0  0  0  0  0  0  0  0  0  0
    7.3790   49.6063   33.2739 H   0  0  0  0  0  0  0  0  0  0  0  0
    7.4617   50.8189   35.4163 H   0  0  0  0  0  0  0  0  0  0  0  0
   11.0388   50.3578   33.0478 H   0  0  0  0  0  0  0  0  0  0  0  0
    8.6142   52.4997   36.8115 H   0  0  0  0  0  0  0  0  0  0  0  0
   12.1748   52.0411   34.4544 H   0  0  0  0  0  0  0  0  0  0  0  0
   10.9671   53.1169   36.3334 H   0  0  0  0  0  0  0  0  0  0  0  0
    9.8242   40.7212   31.7563 H   0  0  0  0  0  0  0  0  0  0  0  0
   11.3873   41.5415   31.4671 H   0  0  0  0  0  0  0  0  0  0  0  0
   11.6986   39.5012   30.3467 H   0  0  0  0  0  0  0  0  0  0  0  0
   10.1095   38.2770   32.6629 H   0  0  0  0  0  0  0  0  0  0  0  0
   13.6672   37.4545   31.2212 H   0  0  0  0  0  0  0  0  0  0  0  0
    8.9779   37.4156   30.9533 H   0  0  0  0  0  0  0  0  0  0  0  0
   11.2861   36.3041   32.5177 H   0  0  0  0  0  0  0  0  0  0  0  0
   10.8690   35.6918   30.4657 H   0  0  0  0  0  0  0  0  0  0  0  0
   12.3356   38.3587   34.7439 H   0  0  0  0  0  0  0  0  0  0  0  0
   16.7572   34.1786   32.4621 H   0  0  0  0  0  0  0  0  0  0  0  0
   15.3530   35.7358   37.5138 H   0  0  0  0  0  0  0  0  0  0  0  0
   16.6361   34.5316   37.1415 H   0  0  0  0  0  0  0  0  0  0  0  0
  1  2  2  0
  1  3  1  0
  3  4  1  0
  4  5  1  0
  6  1  1  0
  7  6  1  0
  6  8  1  0
  8  9  1  0
  9 10  1  0
  9 11  2  0
 10 12  1  0
 12 13  1  0
 13 14  2  0
 15 13  1  0
 14 16  1  0
 17 15  2  0
 16 18  2  0
 18 17  1  0
  4 19  2  0
  4 20  1  0
 21 20  1  0
 21 22  1  0
 22 23  1  0
 22 24  1  0
 23 25  1  0
 24 26  1  0
 24 27  1  0
 27 25  1  0
 25 28  1  0
 27 29  1  0
 30 28  1  0
 31 28  1  0
 32 30  2  0
 30 33  1  0
 34 31  2  0
 35 32  1  0
 33 36  2  0
 33 34  1  0
 37 35  2  0
 37 36  1  0
 36 38  1  0
  6 39  1  6
  7 40  1  0
  7 41  1  0
  8 42  1  0
  8 43  1  0
 12 44  1  0
 12 45  1  0
 14 46  1  0
 15 47  1  0
 16 48  1  0
 17 49  1  0
 18 50  1  0
 21 51  1  0
 21 52  1  0
 22 53  1  0
 24 54  1  0
 25 55  1  0
 26 56  1  0
 27 57  1  0
 29 58  1  0
 31 59  1  0
 35 60  1  0
 38 61  1  0
 38 62  1  0
M  CHG  1   5  -1
M  END
>  <EmbedRMS>  (73) 
0.08952322117837527

$$$$

     RDKit          3D

 62 65  0  0  0  0  0  0  0  0999 V2000
   10.2830   43.7754   33.8077 C   0  0  0  0  0  0  0  0  0  0  0  0
   11.4086   43.5914   34.3579 O   0  0  0  0  0  0  0  0  0  0  0  0
    9.3669   42.7317   33.7012 O   0  0  0  0  0  0  0  0  0  0  0  0
    9.8865   41.2344   34.2838 P   0  0  0  0  0  5  0  0  0  0  0  0
   10.3666   41.4694   35.8745 O   0  0  0  0  0  1  0  0  0  0  0  0
    9.9539   45.1114   33.2427 C   0  0  2  0  0  0  0  0  0  0  0  0
   11.0721   46.0271   33.4851 N   0  0  0  0  0  0  0  0  0  0  0  0
    8.6398   45.6442   33.8514 C   0  0  0  0  0  0  0  0  0  0  0  0
    8.2184   46.9275   33.2061 C   0  0  0  0  0  0  0  0  0  0  0  0
    7.6638   46.9001   31.9217 O   0  0  0  0  0  0  0  0  0  0  0  0
    8.3956   48.0208   33.8097 O   0  0  0  0  0  0  0  0  0  0  0  0
    7.2190   48.0685   31.2362 C   0  0  0  0  0  0  0  0  0  0  0  0
    5.9515   48.5902   31.8562 C   0  0  0  0  0  0  0  0  0  0  0  0
    4.7650   47.8456   31.7569 C   0  0  0  0  0  0  0  0  0  0  0  0
    5.9455   49.8060   32.5603 C   0  0  0  0  0  0  0  0  0  0  0  0
    3.5873   48.3154   32.3466 C   0  0  0  0  0  0  0  0  0  0  0  0
    4.7656   50.2723   33.1487 C   0  0  0  0  0  0  0  0  0  0  0  0
    3.5873   49.5281   33.0414 C   0  0  0  0  0  0  0  0  0  0  0  0
    8.8091   40.1914   34.2078 O   0  0  0  0  0  0  0  0  0  0  0  0
   11.2390   40.7909   33.3683 O   0  0  0  0  0  0  0  0  0  0  0  0
   10.9194   40.6896   31.9947 C   0  0  0  0  0  0  0  0  0  0  0  0
   11.5171   39.3801   31.4397 C   0  0  0  0  0  0  0  0  0  0  0  0
   12.7478   39.0861   32.0734 O   0  0  0  0  0  0  0  0  0  0  0  0
   10.6031   38.1891   31.6666 C   0  0  0  0  0  0  0  0  0  0  0  0
   12.9335   37.6796   32.0279 C   0  0  0  0  0  0  0  0  0  0  0  0
    9.6397   38.0777   30.6456 O   0  0  0  0  0  0  0  0  0  0  0  0
   11.5739   37.0154   31.7057 C   0  0  0  0  0  0  0  0  0  0  0  0
   13.4903   37.2178   33.3231 N   0  0  0  0  0  0  0  0  0  0  0  0
   11.6211   36.3376   30.4695 O   0  0  0  0  0  0  0  0  0  0  0  0
   14.4761   36.3273   33.5725 C   0  0  0  0  0  0  0  0  0  0  0  0
   13.1179   37.6316   34.5684 C   0  0  0  0  0  0  0  0  0  0  0  0
   15.2063   35.6139   32.6737 N   0  0  0  0  0  0  0  0  0  0  0  0
   14.6734   36.2277   34.9179 C   0  0  0  0  0  0  0  0  0  0  0  0
   13.8225   37.0459   35.5779 N   0  0  0  0  0  0  0  0  0  0  0  0
   16.1636   34.7594   33.1546 C   0  0  0  0  0  0  0  0  0  0  0  0
   15.6515   35.3494   35.4129 C   0  0  0  0  0  0  0  0  0  0  0  0
   16.3791   34.6311   34.5041 N   0  0  0  0  0  0  0  0  0  0  0  0
   15.9001   35.1935   36.8088 N   0  0  0  0  0  0  0  0  0  0  0  0
    9.8231   44.9841   32.1448 H   0  0  0  0  0  0  0  0  0  0  0  0
   10.9386   46.8876   32.9061 H   0  0  0  0  0  0  0  0  0  0  0  0
   11.0783   46.3211   34.4897 H   0  0  0  0  0  0  0  0  0  0  0  0
    8.7552   45.7908   34.9483 H   0  0  0  0  0  0  0  0  0  0  0  0
    7.8263   44.9025   33.6967 H   0  0  0  0  0  0  0  0  0  0  0  0
    7.0184   47.8034   30.1767 H   0  0  0  0  0  0  0  0  0  0  0  0
    8.0227   48.8373   31.2365 H   0  0  0  0  0  0  0  0  0  0  0  0
    4.7542   46.9022   31.2248 H   0  0  0  0  0  0  0  0  0  0  0  0
    6.8517   50.3910   32.6561 H   0  0  0  0  0  0  0  0  0  0  0  0
    2.6750   47.7385   32.2663 H   0  0  0  0  0  0  0  0  0  0  0  0
    4.7651   51.2098   33.6895 H   0  0  0  0  0  0  0  0  0  0  0  0
    2.6752   49.8901   33.4980 H   0  0  0  0  0  0  0  0  0  0  0  0
    9.8315   40.7396   31.7550 H   0  0  0  0  0  0  0  0  0  0  0  0
   11.4008   41.5437   31.4722 H   0  0  0  0  0  0  0  0  0  0  0  0
   11.6983   39.5042   30.3470 H   0  0  0  0  0  0  0  0  0  0  0  0
   10.1090   38.2632   32.6650 H   0  0  0  0  0  0  0  0  0  0  0  0
   13.6656   37.4541   31.2207 H   0  0  0  0  0  0  0  0  0  0  0  0
    8.8965   38.6900   30.8852 H   0  0  0  0  0  0  0  0  0  0  0  0
   11.2846   36.3060   32.5175 H   0  0  0  0  0  0  0  0  0  0  0  0
   10.8523   35.7095   30.4590 H   0  0  0  0  0  0  0  0  0  0  0  0
   12.3353   38.3588   34.7439 H   0  0  0  0  0  0  0  0  0  0  0  0
   16.7570   34.1788   32.4619 H   0  0  0  0  0  0  0  0  0  0  0  0
   15.3529   35.7359   37.5136 H   0  0  0  0  0  0  0  0  0  0  0  0
   16.6360   34.5317   37.1413 H   0  0  0  0  0  0  0  0  0  0  0  0
  1  2  2  0
  1  3  1  0
  3  4  1  0
  4  5  1  0
  6  1  1  0
  7  6  1  0
  6  8  1  0
  8  9  1  0
  9 10  1  0
  9 11  2  0
 10 12  1  0
 12 13  1  0
 13 14  2  0
 15 13  1  0
 14 16  1  0
 17 15  2  0
 16 18  2  0
 18 17  1  0
  4 19  2  0
  4 20  1  0
 21 20  1  0
 21 22  1  0
 22 23  1  0
 22 24  1  0
 23 25  1  0
 24 26  1  0
 24 27  1  0
 27 25  1  0
 25 28  1  0
 27 29  1  0
 30 28  1  0
 31 28  1  0
 32 30  2  0
 30 33  1  0
 34 31  2  0
 35 32  1  0
 33 36  2  0
 33 34  1  0
 37 35  2  0
 37 36  1  0
 36 38  1  0
  6 39  1  6
  7 40  1  0
  7 41  1  0
  8 42  1  0
  8 43  1  0
 12 44  1  0
 12 45  1  0
 14 46  1  0
 15 47  1  0
 16 48  1  0
 17 49  1  0
 18 50  1  0
 21 51  1  0
 21 52  1  0
 22 53  1  0
 24 54  1  0
 25 55  1  0
 26 56  1  0
 27 57  1  0
 29 58  1  0
 31 59  1  0
 35 60  1  0
 38 61  1  0
 38 62  1  0
M  CHG  1   5  -1
M  END
>  <EmbedRMS>  (74) 
0.08916819184372263

$$$$

     RDKit          3D

 62 65  0  0  0  0  0  0  0  0999 V2000
   10.2885   43.7678   33.8062 C   0  0  0  0  0  0  0  0  0  0  0  0
   11.4118   43.5786   34.3588 O   0  0  0  0  0  0  0  0  0  0  0  0
    9.3667   42.7302   33.7010 O   0  0  0  0  0  0  0  0  0  0  0  0
    9.8840   41.2329   34.2849 P   0  0  0  0  0  5  0  0  0  0  0  0
   10.3642   41.4683   35.8752 O   0  0  0  0  0  1  0  0  0  0  0  0
    9.9617   45.1135   33.2508 C   0  0  2  0  0  0  0  0  0  0  0  0
   11.0631   46.0529   33.4758 N   0  0  0  0  0  0  0  0  0  0  0  0
    8.6444   45.6740   33.8250 C   0  0  0  0  0  0  0  0  0  0  0  0
    8.6122   45.6607   35.3252 C   0  0  0  0  0  0  0  0  0  0  0  0
    9.2958   46.6487   36.0420 O   0  0  0  0  0  0  0  0  0  0  0  0
    8.0052   44.7333   35.9275 O   0  0  0  0  0  0  0  0  0  0  0  0
    9.5236   46.5725   37.4474 C   0  0  0  0  0  0  0  0  0  0  0  0
   10.5110   45.4784   37.7523 C   0  0  0  0  0  0  0  0  0  0  0  0
   11.8588   45.6295   37.3881 C   0  0  0  0  0  0  0  0  0  0  0  0
   10.0882   44.2766   38.3448 C   0  0  0  0  0  0  0  0  0  0  0  0
   12.7710   44.5951   37.6183 C   0  0  0  0  0  0  0  0  0  0  0  0
   11.0046   43.2461   38.5770 C   0  0  0  0  0  0  0  0  0  0  0  0
   12.3444   43.4044   38.2125 C   0  0  0  0  0  0  0  0  0  0  0  0
    8.8067   40.1901   34.2082 O   0  0  0  0  0  0  0  0  0  0  0  0
   11.2372   40.7898   33.3703 O   0  0  0  0  0  0  0  0  0  0  0  0
   10.9186   40.6905   31.9966 C   0  0  0  0  0  0  0  0  0  0  0  0
   11.5174   39.3825   31.4414 C   0  0  0  0  0  0  0  0  0  0  0  0
   12.7494   39.0893   32.0756 O   0  0  0  0  0  0  0  0  0  0  0  0
   10.6036   38.1900   31.6660 C   0  0  0  0  0  0  0  0  0  0  0  0
   12.9401   37.6834   32.0276 C   0  0  0  0  0  0  0  0  0  0  0  0
    9.6377   38.0785   30.6474 O   0  0  0  0  0  0  0  0  0  0  0  0
   11.5804   37.0204   31.6937 C   0  0  0  0  0  0  0  0  0  0  0  0
   13.4902   37.2178   33.3238 N   0  0  0  0  0  0  0  0  0  0  0  0
   11.6118   36.3193   30.4680 O   0  0  0  0  0  0  0  0  0  0  0  0
   14.4758   36.3272   33.5731 C   0  0  0  0  0  0  0  0  0  0  0  0
   13.1176   37.6319   34.5688 C   0  0  0  0  0  0  0  0  0  0  0  0
   15.2064   35.6142   32.6742 N   0  0  0  0  0  0  0  0  0  0  0  0
   14.6729   36.2275   34.9185 C   0  0  0  0  0  0  0  0  0  0  0  0
   13.8222   37.0458   35.5784 N   0  0  0  0  0  0  0  0  0  0  0  0
   16.1636   34.7597   33.1549 C   0  0  0  0  0  0  0  0  0  0  0  0
   15.6513   35.3493   35.4133 C   0  0  0  0  0  0  0  0  0  0  0  0
   16.3791   34.6312   34.5044 N   0  0  0  0  0  0  0  0  0  0  0  0
   15.9001   35.1935   36.8091 N   0  0  0  0  0  0  0  0  0  0  0  0
    9.8249   44.9994   32.1528 H   0  0  0  0  0  0  0  0  0  0  0  0
   11.9056   45.7269   32.9475 H   0  0  0  0  0  0  0  0  0  0  0  0
   11.3139   46.0896   34.4901 H   0  0  0  0  0  0  0  0  0  0  0  0
    7.7915   45.0757   33.4350 H   0  0  0  0  0  0  0  0  0  0  0  0
    8.5002   46.7169   33.4692 H   0  0  0  0  0  0  0  0  0  0  0  0
    8.5607   46.4148   37.9811 H   0  0  0  0  0  0  0  0  0  0  0  0
    9.9380   47.5427   37.7939 H   0  0  0  0  0  0  0  0  0  0  0  0
   12.1994   46.5442   36.9190 H   0  0  0  0  0  0  0  0  0  0  0  0
    9.0508   44.1342   38.6203 H   0  0  0  0  0  0  0  0  0  0  0  0
   13.8080   44.7153   37.3325 H   0  0  0  0  0  0  0  0  0  0  0  0
   10.6742   42.3215   39.0324 H   0  0  0  0  0  0  0  0  0  0  0  0
   13.0510   42.6035   38.3877 H   0  0  0  0  0  0  0  0  0  0  0  0
    9.8309   40.7399   31.7560 H   0  0  0  0  0  0  0  0  0  0  0  0
   11.4000   41.5456   31.4757 H   0  0  0  0  0  0  0  0  0  0  0  0
   11.6988   39.5095   30.3491 H   0  0  0  0  0  0  0  0  0  0  0  0
   10.1129   38.2588   32.6664 H   0  0  0  0  0  0  0  0  0  0  0  0
   13.6800   37.4629   31.2266 H   0  0  0  0  0  0  0  0  0  0  0  0
    8.8953   38.6909   30.8891 H   0  0  0  0  0  0  0  0  0  0  0  0
   11.2831   36.3060   32.4929 H   0  0  0  0  0  0  0  0  0  0  0  0
   11.8859   36.9590   29.7593 H   0  0  0  0  0  0  0  0  0  0  0  0
   12.3362   38.3603   34.7442 H   0  0  0  0  0  0  0  0  0  0  0  0
   16.7572   34.1793   32.4621 H   0  0  0  0  0  0  0  0  0  0  0  0
   15.3528   35.7357   37.5140 H   0  0  0  0  0  0  0  0  0  0  0  0
   16.6362   34.5318   37.1416 H   0  0  0  0  0  0  0  0  0  0  0  0
  1  2  2  0
  1  3  1  0
  3  4  1  0
  4  5  1  0
  6  1  1  0
  7  6  1  0
  6  8  1  0
  8  9  1  0
  9 10  1  0
  9 11  2  0
 10 12  1  0
 12 13  1  0
 13 14  2  0
 15 13  1  0
 14 16  1  0
 17 15  2  0
 16 18  2  0
 18 17  1  0
  4 19  2  0
  4 20  1  0
 21 20  1  0
 21 22  1  0
 22 23  1  0
 22 24  1  0
 23 25  1  0
 24 26  1  0
 24 27  1  0
 27 25  1  0
 25 28  1  0
 27 29  1  0
 30 28  1  0
 31 28  1  0
 32 30  2  0
 30 33  1  0
 34 31  2  0
 35 32  1  0
 33 36  2  0
 33 34  1  0
 37 35  2  0
 37 36  1  0
 36 38  1  0
  6 39  1  6
  7 40  1  0
  7 41  1  0
  8 42  1  0
  8 43  1  0
 12 44  1  0
 12 45  1  0
 14 46  1  0
 15 47  1  0
 16 48  1  0
 17 49  1  0
 18 50  1  0
 21 51  1  0
 21 52  1  0
 22 53  1  0
 24 54  1  0
 25 55  1  0
 26 56  1  0
 27 57  1  0
 29 58  1  0
 31 59  1  0
 35 60  1  0
 38 61  1  0
 38 62  1  0
M  CHG  1   5  -1
M  END
>  <EmbedRMS>  (75) 
0.08891081642072603

$$$$

     RDKit          3D

 62 65  0  0  0  0  0  0  0  0999 V2000
   10.2819   43.7752   33.8090 C   0  0  0  0  0  0  0  0  0  0  0  0
   11.4049   43.5916   34.3648 O   0  0  0  0  0  0  0  0  0  0  0  0
    9.3695   42.7292   33.6969 O   0  0  0  0  0  0  0  0  0  0  0  0
    9.8864   41.2337   34.2840 P   0  0  0  0  0  5  0  0  0  0  0  0
   10.3659   41.4703   35.8746 O   0  0  0  0  0  1  0  0  0  0  0  0
    9.9470   45.1209   33.2576 C   0  0  2  0  0  0  0  0  0  0  0  0
   11.0786   46.0251   33.4697 N   0  0  0  0  0  0  0  0  0  0  0  0
    8.6911   45.6999   33.9423 C   0  0  0  0  0  0  0  0  0  0  0  0
    7.4510   44.9375   33.5854 C   0  0  0  0  0  0  0  0  0  0  0  0
    7.0041   44.9324   32.2592 O   0  0  0  0  0  0  0  0  0  0  0  0
    6.8307   44.2969   34.4776 O   0  0  0  0  0  0  0  0  0  0  0  0
    5.8423   44.2275   31.8279 C   0  0  0  0  0  0  0  0  0  0  0  0
    4.5979   44.9106   32.3257 C   0  0  0  0  0  0  0  0  0  0  0  0
    4.2537   46.1818   31.8381 C   0  0  0  0  0  0  0  0  0  0  0  0
    3.7846   44.3009   33.2958 C   0  0  0  0  0  0  0  0  0  0  0  0
    3.1078   46.8302   32.3092 C   0  0  0  0  0  0  0  0  0  0  0  0
    2.6396   44.9529   33.7644 C   0  0  0  0  0  0  0  0  0  0  0  0
    2.3010   46.2160   33.2711 C   0  0  0  0  0  0  0  0  0  0  0  0
    8.8084   40.1913   34.2082 O   0  0  0  0  0  0  0  0  0  0  0  0
   11.2378   40.7896   33.3687 O   0  0  0  0  0  0  0  0  0  0  0  0
   10.9160   40.6896   31.9958 C   0  0  0  0  0  0  0  0  0  0  0  0
   11.5272   39.3897   31.4371 C   0  0  0  0  0  0  0  0  0  0  0  0
   12.7509   39.0914   32.0835 O   0  0  0  0  0  0  0  0  0  0  0  0
   10.6122   38.1916   31.6451 C   0  0  0  0  0  0  0  0  0  0  0  0
   12.9429   37.6851   32.0294 C   0  0  0  0  0  0  0  0  0  0  0  0
    9.6069   38.0858   30.6603 O   0  0  0  0  0  0  0  0  0  0  0  0
   11.5844   37.0185   31.6879 C   0  0  0  0  0  0  0  0  0  0  0  0
   13.4899   37.2163   33.3249 N   0  0  0  0  0  0  0  0  0  0  0  0
   11.6200   36.3062   30.4693 O   0  0  0  0  0  0  0  0  0  0  0  0
   14.4759   36.3263   33.5738 C   0  0  0  0  0  0  0  0  0  0  0  0
   13.1175   37.6307   34.5698 C   0  0  0  0  0  0  0  0  0  0  0  0
   15.2065   35.6138   32.6746 N   0  0  0  0  0  0  0  0  0  0  0  0
   14.6731   36.2267   34.9190 C   0  0  0  0  0  0  0  0  0  0  0  0
   13.8224   37.0450   35.5792 N   0  0  0  0  0  0  0  0  0  0  0  0
   16.1640   34.7595   33.1551 C   0  0  0  0  0  0  0  0  0  0  0  0
   15.6517   35.3489   35.4136 C   0  0  0  0  0  0  0  0  0  0  0  0
   16.3795   34.6310   34.5046 N   0  0  0  0  0  0  0  0  0  0  0  0
   15.9006   35.1931   36.8094 N   0  0  0  0  0  0  0  0  0  0  0  0
    9.7613   45.0218   32.1638 H   0  0  0  0  0  0  0  0  0  0  0  0
   11.8856   45.6849   32.8962 H   0  0  0  0  0  0  0  0  0  0  0  0
   10.8354   46.9619   33.0724 H   0  0  0  0  0  0  0  0  0  0  0  0
    8.8315   45.7095   35.0463 H   0  0  0  0  0  0  0  0  0  0  0  0
    8.5412   46.7517   33.6168 H   0  0  0  0  0  0  0  0  0  0  0  0
    5.8263   44.2158   30.7177 H   0  0  0  0  0  0  0  0  0  0  0  0
    5.8938   43.1696   32.1676 H   0  0  0  0  0  0  0  0  0  0  0  0
    4.8738   46.6692   31.0958 H   0  0  0  0  0  0  0  0  0  0  0  0
    4.0369   43.3246   33.6907 H   0  0  0  0  0  0  0  0  0  0  0  0
    2.8462   47.8095   31.9298 H   0  0  0  0  0  0  0  0  0  0  0  0
    2.0155   44.4794   34.5113 H   0  0  0  0  0  0  0  0  0  0  0  0
    1.4148   46.7194   33.6353 H   0  0  0  0  0  0  0  0  0  0  0  0
   11.3832   41.5525   31.4746 H   0  0  0  0  0  0  0  0  0  0  0  0
    9.8259   40.7192   31.7585 H   0  0  0  0  0  0  0  0  0  0  0  0
   11.7319   39.5336   30.3517 H   0  0  0  0  0  0  0  0  0  0  0  0
   10.1216   38.2684   32.6412 H   0  0  0  0  0  0  0  0  0  0  0  0
   13.6882   37.4704   31.2318 H   0  0  0  0  0  0  0  0  0  0  0  0
   10.0255   38.1751   29.7656 H   0  0  0  0  0  0  0  0  0  0  0  0
   11.2795   36.3123   32.4915 H   0  0  0  0  0  0  0  0  0  0  0  0
   11.9871   36.9098   29.7714 H   0  0  0  0  0  0  0  0  0  0  0  0
   12.3365   38.3596   34.7452 H   0  0  0  0  0  0  0  0  0  0  0  0
   16.7577   34.1794   32.4622 H   0  0  0  0  0  0  0  0  0  0  0  0
   15.3532   35.7351   37.5143 H   0  0  0  0  0  0  0  0  0  0  0  0
   16.6368   34.5316   37.1418 H   0  0  0  0  0  0  0  0  0  0  0  0
  1  2  2  0
  1  3  1  0
  3  4  1  0
  4  5  1  0
  6  1  1  0
  7  6  1  0
  6  8  1  0
  8  9  1  0
  9 10  1  0
  9 11  2  0
 10 12  1  0
 12 13  1  0
 13 14  2  0
 15 13  1  0
 14 16  1  0
 17 15  2  0
 16 18  2  0
 18 17  1  0
  4 19  2  0
  4 20  1  0
 21 20  1  0
 21 22  1  0
 22 23  1  0
 22 24  1  0
 23 25  1  0
 24 26  1  0
 24 27  1  0
 27 25  1  0
 25 28  1  0
 27 29  1  0
 30 28  1  0
 31 28  1  0
 32 30  2  0
 30 33  1  0
 34 31  2  0
 35 32  1  0
 33 36  2  0
 33 34  1  0
 37 35  2  0
 37 36  1  0
 36 38  1  0
  6 39  1  6
  7 40  1  0
  7 41  1  0
  8 42  1  0
  8 43  1  0
 12 44  1  0
 12 45  1  0
 14 46  1  0
 15 47  1  0
 16 48  1  0
 17 49  1  0
 18 50  1  0
 21 51  1  0
 21 52  1  0
 22 53  1  0
 24 54  1  0
 25 55  1  0
 26 56  1  0
 27 57  1  0
 29 58  1  0
 31 59  1  0
 35 60  1  0
 38 61  1  0
 38 62  1  0
M  CHG  1   5  -1
M  END
>  <EmbedRMS>  (76) 
0.08732044211519625

$$$$

     RDKit          3D

 62 65  0  0  0  0  0  0  0  0999 V2000
   10.2859   43.7720   33.8046 C   0  0  0  0  0  0  0  0  0  0  0  0
   11.4084   43.5885   34.3611 O   0  0  0  0  0  0  0  0  0  0  0  0
    9.3674   42.7309   33.6992 O   0  0  0  0  0  0  0  0  0  0  0  0
    9.8853   41.2341   34.2839 P   0  0  0  0  0  5  0  0  0  0  0  0
   10.3659   41.4701   35.8743 O   0  0  0  0  0  1  0  0  0  0  0  0
    9.9530   45.1148   33.2532 C   0  0  2  0  0  0  0  0  0  0  0  0
   11.0714   46.0332   33.4767 N   0  0  0  0  0  0  0  0  0  0  0  0
    8.6599   45.6656   33.8883 C   0  0  0  0  0  0  0  0  0  0  0  0
    8.7907   45.8585   35.3702 C   0  0  0  0  0  0  0  0  0  0  0  0
    9.4241   47.0034   35.8604 O   0  0  0  0  0  0  0  0  0  0  0  0
    8.3640   44.9710   36.1588 O   0  0  0  0  0  0  0  0  0  0  0  0
    9.6349   47.2298   37.2492 C   0  0  0  0  0  0  0  0  0  0  0  0
   10.3756   48.5217   37.4306 C   0  0  0  0  0  0  0  0  0  0  0  0
   11.7769   48.5502   37.3388 C   0  0  0  0  0  0  0  0  0  0  0  0
    9.6729   49.7225   37.6239 C   0  0  0  0  0  0  0  0  0  0  0  0
   12.4663   49.7600   37.4685 C   0  0  0  0  0  0  0  0  0  0  0  0
   10.3661   50.9303   37.7533 C   0  0  0  0  0  0  0  0  0  0  0  0
   11.7617   50.9488   37.6782 C   0  0  0  0  0  0  0  0  0  0  0  0
    8.8077   40.1913   34.2086 O   0  0  0  0  0  0  0  0  0  0  0  0
   11.2370   40.7898   33.3680 O   0  0  0  0  0  0  0  0  0  0  0  0
   10.9154   40.6881   31.9949 C   0  0  0  0  0  0  0  0  0  0  0  0
   11.5261   39.3870   31.4365 C   0  0  0  0  0  0  0  0  0  0  0  0
   12.7492   39.0893   32.0819 O   0  0  0  0  0  0  0  0  0  0  0  0
   10.6123   38.1893   31.6461 C   0  0  0  0  0  0  0  0  0  0  0  0
   12.9373   37.6827   32.0301 C   0  0  0  0  0  0  0  0  0  0  0  0
    9.6150   38.0838   30.6538 O   0  0  0  0  0  0  0  0  0  0  0  0
   11.5793   37.0136   31.7014 C   0  0  0  0  0  0  0  0  0  0  0  0
   13.4906   37.2169   33.3242 N   0  0  0  0  0  0  0  0  0  0  0  0
   11.6216   36.3252   30.4725 O   0  0  0  0  0  0  0  0  0  0  0  0
   14.4763   36.3266   33.5731 C   0  0  0  0  0  0  0  0  0  0  0  0
   13.1182   37.6308   34.5694 C   0  0  0  0  0  0  0  0  0  0  0  0
   15.2065   35.6137   32.6740 N   0  0  0  0  0  0  0  0  0  0  0  0
   14.6736   36.2270   34.9185 C   0  0  0  0  0  0  0  0  0  0  0  0
   13.8229   37.0451   35.5787 N   0  0  0  0  0  0  0  0  0  0  0  0
   16.1639   34.7593   33.1547 C   0  0  0  0  0  0  0  0  0  0  0  0
   15.6519   35.3489   35.4132 C   0  0  0  0  0  0  0  0  0  0  0  0
   16.3795   34.6308   34.5042 N   0  0  0  0  0  0  0  0  0  0  0  0
   15.9006   35.1931   36.8090 N   0  0  0  0  0  0  0  0  0  0  0  0
    9.7837   45.0054   32.1583 H   0  0  0  0  0  0  0  0  0  0  0  0
   10.8103   46.9720   33.0962 H   0  0  0  0  0  0  0  0  0  0  0  0
   11.8828   45.7128   32.8982 H   0  0  0  0  0  0  0  0  0  0  0  0
    7.8129   44.9772   33.6741 H   0  0  0  0  0  0  0  0  0  0  0  0
    8.4068   46.6419   33.4216 H   0  0  0  0  0  0  0  0  0  0  0  0
   10.2252   46.3916   37.6805 H   0  0  0  0  0  0  0  0  0  0  0  0
    8.6560   47.2674   37.7757 H   0  0  0  0  0  0  0  0  0  0  0  0
   12.3337   47.6373   37.1659 H   0  0  0  0  0  0  0  0  0  0  0  0
    8.5910   49.7238   37.6736 H   0  0  0  0  0  0  0  0  0  0  0  0
   13.5465   49.7765   37.4025 H   0  0  0  0  0  0  0  0  0  0  0  0
    9.8211   51.8526   37.9077 H   0  0  0  0  0  0  0  0  0  0  0  0
   12.2966   51.8845   37.7769 H   0  0  0  0  0  0  0  0  0  0  0  0
   11.3827   41.5503   31.4728 H   0  0  0  0  0  0  0  0  0  0  0  0
    9.8252   40.7180   31.7580 H   0  0  0  0  0  0  0  0  0  0  0  0
   11.7290   39.5287   30.3504 H   0  0  0  0  0  0  0  0  0  0  0  0
   10.1139   38.2718   32.6380 H   0  0  0  0  0  0  0  0  0  0  0  0
   13.6726   37.4636   31.2240 H   0  0  0  0  0  0  0  0  0  0  0  0
   10.0536   38.1085   29.7639 H   0  0  0  0  0  0  0  0  0  0  0  0
   11.2646   36.3134   32.5107 H   0  0  0  0  0  0  0  0  0  0  0  0
   12.1549   35.5032   30.6315 H   0  0  0  0  0  0  0  0  0  0  0  0
   12.3362   38.3586   34.7450 H   0  0  0  0  0  0  0  0  0  0  0  0
   16.7573   34.1788   32.4619 H   0  0  0  0  0  0  0  0  0  0  0  0
   16.6366   34.5314   37.1415 H   0  0  0  0  0  0  0  0  0  0  0  0
   15.3533   35.7353   37.5139 H   0  0  0  0  0  0  0  0  0  0  0  0
  1  2  2  0
  1  3  1  0
  3  4  1  0
  4  5  1  0
  6  1  1  0
  7  6  1  0
  6  8  1  0
  8  9  1  0
  9 10  1  0
  9 11  2  0
 10 12  1  0
 12 13  1  0
 13 14  2  0
 15 13  1  0
 14 16  1  0
 17 15  2  0
 16 18  2  0
 18 17  1  0
  4 19  2  0
  4 20  1  0
 21 20  1  0
 21 22  1  0
 22 23  1  0
 22 24  1  0
 23 25  1  0
 24 26  1  0
 24 27  1  0
 27 25  1  0
 25 28  1  0
 27 29  1  0
 30 28  1  0
 31 28  1  0
 32 30  2  0
 30 33  1  0
 34 31  2  0
 35 32  1  0
 33 36  2  0
 33 34  1  0
 37 35  2  0
 37 36  1  0
 36 38  1  0
  6 39  1  6
  7 40  1  0
  7 41  1  0
  8 42  1  0
  8 43  1  0
 12 44  1  0
 12 45  1  0
 14 46  1  0
 15 47  1  0
 16 48  1  0
 17 49  1  0
 18 50  1  0
 21 51  1  0
 21 52  1  0
 22 53  1  0
 24 54  1  0
 25 55  1  0
 26 56  1  0
 27 57  1  0
 29 58  1  0
 31 59  1  0
 35 60  1  0
 38 61  1  0
 38 62  1  0
M  CHG  1   5  -1
M  END
>  <EmbedRMS>  (77) 
0.08792365833980935

$$$$

     RDKit          3D

 62 65  0  0  0  0  0  0  0  0999 V2000
   10.2862   43.7710   33.8097 C   0  0  0  0  0  0  0  0  0  0  0  0
   11.4100   43.5818   34.3615 O   0  0  0  0  0  0  0  0  0  0  0  0
    9.3669   42.7308   33.7017 O   0  0  0  0  0  0  0  0  0  0  0  0
    9.8850   41.2328   34.2832 P   0  0  0  0  0  5  0  0  0  0  0  0
   10.3662   41.4673   35.8738 O   0  0  0  0  0  1  0  0  0  0  0  0
    9.9605   45.1126   33.2475 C   0  0  2  0  0  0  0  0  0  0  0  0
   11.0656   46.0480   33.4748 N   0  0  0  0  0  0  0  0  0  0  0  0
    8.6648   45.6567   33.8722 C   0  0  0  0  0  0  0  0  0  0  0  0
    8.2801   46.9670   33.2585 C   0  0  0  0  0  0  0  0  0  0  0  0
    8.7618   48.1541   33.8167 O   0  0  0  0  0  0  0  0  0  0  0  0
    7.5622   46.9875   32.2214 O   0  0  0  0  0  0  0  0  0  0  0  0
    8.4775   49.4341   33.2640 C   0  0  0  0  0  0  0  0  0  0  0  0
    9.1639   50.4878   34.0821 C   0  0  0  0  0  0  0  0  0  0  0  0
   10.5013   50.8266   33.8184 C   0  0  0  0  0  0  0  0  0  0  0  0
    8.4993   51.0938   35.1611 C   0  0  0  0  0  0  0  0  0  0  0  0
   11.1541   51.7805   34.6055 C   0  0  0  0  0  0  0  0  0  0  0  0
    9.1557   52.0475   35.9458 C   0  0  0  0  0  0  0  0  0  0  0  0
   10.4811   52.3924   35.6668 C   0  0  0  0  0  0  0  0  0  0  0  0
    8.8071   40.1904   34.2077 O   0  0  0  0  0  0  0  0  0  0  0  0
   11.2367   40.7900   33.3660 O   0  0  0  0  0  0  0  0  0  0  0  0
   10.9142   40.6849   31.9931 C   0  0  0  0  0  0  0  0  0  0  0  0
   11.5166   39.3773   31.4393 C   0  0  0  0  0  0  0  0  0  0  0  0
   12.7472   39.0854   32.0739 O   0  0  0  0  0  0  0  0  0  0  0  0
   10.6047   38.1867   31.6669 C   0  0  0  0  0  0  0  0  0  0  0  0
   12.9345   37.6791   32.0282 C   0  0  0  0  0  0  0  0  0  0  0  0
    9.6378   38.0917   30.6488 O   0  0  0  0  0  0  0  0  0  0  0  0
   11.5761   37.0129   31.7056 C   0  0  0  0  0  0  0  0  0  0  0  0
   13.4909   37.2177   33.3233 N   0  0  0  0  0  0  0  0  0  0  0  0
   11.6234   36.3371   30.4684 O   0  0  0  0  0  0  0  0  0  0  0  0
   14.4765   36.3272   33.5727 C   0  0  0  0  0  0  0  0  0  0  0  0
   13.1182   37.6315   34.5685 C   0  0  0  0  0  0  0  0  0  0  0  0
   15.2066   35.6137   32.6739 N   0  0  0  0  0  0  0  0  0  0  0  0
   14.6736   36.2276   34.9182 C   0  0  0  0  0  0  0  0  0  0  0  0
   13.8227   37.0457   35.5781 N   0  0  0  0  0  0  0  0  0  0  0  0
   16.1638   34.7593   33.1548 C   0  0  0  0  0  0  0  0  0  0  0  0
   15.6517   35.3492   35.4131 C   0  0  0  0  0  0  0  0  0  0  0  0
   16.3792   34.6309   34.5043 N   0  0  0  0  0  0  0  0  0  0  0  0
   15.9002   35.1934   36.8090 N   0  0  0  0  0  0  0  0  0  0  0  0
    9.8090   44.9959   32.1514 H   0  0  0  0  0  0  0  0  0  0  0  0
   11.9222   45.7017   32.9832 H   0  0  0  0  0  0  0  0  0  0  0  0
   11.2748   46.1196   34.4981 H   0  0  0  0  0  0  0  0  0  0  0  0
    8.7970   45.7911   34.9683 H   0  0  0  0  0  0  0  0  0  0  0  0
    7.8351   44.9323   33.7176 H   0  0  0  0  0  0  0  0  0  0  0  0
    8.8367   49.4767   32.2123 H   0  0  0  0  0  0  0  0  0  0  0  0
    7.3785   49.6045   33.2587 H   0  0  0  0  0  0  0  0  0  0  0  0
   11.0371   50.3520   33.0055 H   0  0  0  0  0  0  0  0  0  0  0  0
    7.4756   50.8282   35.3946 H   0  0  0  0  0  0  0  0  0  0  0  0
   12.1831   52.0425   34.3953 H   0  0  0  0  0  0  0  0  0  0  0  0
    8.6380   52.5161   36.7728 H   0  0  0  0  0  0  0  0  0  0  0  0
   10.9882   53.1294   36.2760 H   0  0  0  0  0  0  0  0  0  0  0  0
    9.8242   40.7213   31.7563 H   0  0  0  0  0  0  0  0  0  0  0  0
   11.3873   41.5415   31.4671 H   0  0  0  0  0  0  0  0  0  0  0  0
   11.6986   39.5012   30.3467 H   0  0  0  0  0  0  0  0  0  0  0  0
   10.1095   38.2770   32.6628 H   0  0  0  0  0  0  0  0  0  0  0  0
   13.6672   37.4545   31.2213 H   0  0  0  0  0  0  0  0  0  0  0  0
    8.9779   37.4156   30.9533 H   0  0  0  0  0  0  0  0  0  0  0  0
   11.2861   36.3041   32.5176 H   0  0  0  0  0  0  0  0  0  0  0  0
   10.8690   35.6918   30.4657 H   0  0  0  0  0  0  0  0  0  0  0  0
   12.3356   38.3587   34.7439 H   0  0  0  0  0  0  0  0  0  0  0  0
   16.7572   34.1786   32.4621 H   0  0  0  0  0  0  0  0  0  0  0  0
   15.3530   35.7358   37.5138 H   0  0  0  0  0  0  0  0  0  0  0  0
   16.6361   34.5315   37.1415 H   0  0  0  0  0  0  0  0  0  0  0  0
  1  2  2  0
  1  3  1  0
  3  4  1  0
  4  5  1  0
  6  1  1  0
  7  6  1  0
  6  8  1  0
  8  9  1  0
  9 10  1  0
  9 11  2  0
 10 12  1  0
 12 13  1  0
 13 14  2  0
 15 13  1  0
 14 16  1  0
 17 15  2  0
 16 18  2  0
 18 17  1  0
  4 19  2  0
  4 20  1  0
 21 20  1  0
 21 22  1  0
 22 23  1  0
 22 24  1  0
 23 25  1  0
 24 26  1  0
 24 27  1  0
 27 25  1  0
 25 28  1  0
 27 29  1  0
 30 28  1  0
 31 28  1  0
 32 30  2  0
 30 33  1  0
 34 31  2  0
 35 32  1  0
 33 36  2  0
 33 34  1  0
 37 35  2  0
 37 36  1  0
 36 38  1  0
  6 39  1  6
  7 40  1  0
  7 41  1  0
  8 42  1  0
  8 43  1  0
 12 44  1  0
 12 45  1  0
 14 46  1  0
 15 47  1  0
 16 48  1  0
 17 49  1  0
 18 50  1  0
 21 51  1  0
 21 52  1  0
 22 53  1  0
 24 54  1  0
 25 55  1  0
 26 56  1  0
 27 57  1  0
 29 58  1  0
 31 59  1  0
 35 60  1  0
 38 61  1  0
 38 62  1  0
M  CHG  1   5  -1
M  END
>  <EmbedRMS>  (78) 
0.08952535099420886

$$$$

     RDKit          3D

 62 65  0  0  0  0  0  0  0  0999 V2000
   10.2890   43.7680   33.8061 C   0  0  0  0  0  0  0  0  0  0  0  0
   11.4125   43.5788   34.3579 O   0  0  0  0  0  0  0  0  0  0  0  0
    9.3673   42.7300   33.7007 O   0  0  0  0  0  0  0  0  0  0  0  0
    9.8840   41.2329   34.2851 P   0  0  0  0  0  5  0  0  0  0  0  0
   10.3636   41.4692   35.8758 O   0  0  0  0  0  1  0  0  0  0  0  0
    9.9623   45.1126   33.2500 C   0  0  2  0  0  0  0  0  0  0  0  0
   11.0617   46.0541   33.4771 N   0  0  0  0  0  0  0  0  0  0  0  0
    8.6453   45.6677   33.8260 C   0  0  0  0  0  0  0  0  0  0  0  0
    8.6750   45.7965   35.3205 C   0  0  0  0  0  0  0  0  0  0  0  0
    8.4335   44.6675   36.1114 O   0  0  0  0  0  0  0  0  0  0  0  0
    8.9515   46.9078   35.8491 O   0  0  0  0  0  0  0  0  0  0  0  0
    8.4533   44.6894   37.5364 C   0  0  0  0  0  0  0  0  0  0  0  0
    7.2381   45.3995   38.0666 C   0  0  0  0  0  0  0  0  0  0  0  0
    7.3571   46.6464   38.7031 C   0  0  0  0  0  0  0  0  0  0  0  0
    5.9658   44.8284   37.9020 C   0  0  0  0  0  0  0  0  0  0  0  0
    6.2182   47.3065   39.1752 C   0  0  0  0  0  0  0  0  0  0  0  0
    4.8296   45.4917   38.3757 C   0  0  0  0  0  0  0  0  0  0  0  0
    4.9557   46.7295   39.0125 C   0  0  0  0  0  0  0  0  0  0  0  0
    8.8065   40.1903   34.2083 O   0  0  0  0  0  0  0  0  0  0  0  0
   11.2371   40.7894   33.3706 O   0  0  0  0  0  0  0  0  0  0  0  0
   10.9186   40.6903   31.9968 C   0  0  0  0  0  0  0  0  0  0  0  0
   11.5174   39.3824   31.4414 C   0  0  0  0  0  0  0  0  0  0  0  0
   12.7494   39.0893   32.0756 O   0  0  0  0  0  0  0  0  0  0  0  0
   10.6036   38.1899   31.6660 C   0  0  0  0  0  0  0  0  0  0  0  0
   12.9401   37.6834   32.0276 C   0  0  0  0  0  0  0  0  0  0  0  0
    9.6376   38.0785   30.6474 O   0  0  0  0  0  0  0  0  0  0  0  0
   11.5804   37.0204   31.6937 C   0  0  0  0  0  0  0  0  0  0  0  0
   13.4902   37.2177   33.3237 N   0  0  0  0  0  0  0  0  0  0  0  0
   11.6118   36.3193   30.4680 O   0  0  0  0  0  0  0  0  0  0  0  0
   14.4758   36.3271   33.5731 C   0  0  0  0  0  0  0  0  0  0  0  0
   13.1176   37.6317   34.5688 C   0  0  0  0  0  0  0  0  0  0  0  0
   15.2064   35.6142   32.6742 N   0  0  0  0  0  0  0  0  0  0  0  0
   14.6729   36.2274   34.9184 C   0  0  0  0  0  0  0  0  0  0  0  0
   13.8221   37.0457   35.5783 N   0  0  0  0  0  0  0  0  0  0  0  0
   16.1637   34.7597   33.1549 C   0  0  0  0  0  0  0  0  0  0  0  0
   15.6514   35.3493   35.4133 C   0  0  0  0  0  0  0  0  0  0  0  0
   16.3791   34.6312   34.5044 N   0  0  0  0  0  0  0  0  0  0  0  0
   15.9001   35.1935   36.8091 N   0  0  0  0  0  0  0  0  0  0  0  0
    9.8250   44.9969   32.1523 H   0  0  0  0  0  0  0  0  0  0  0  0
   11.9095   45.7247   32.9595 H   0  0  0  0  0  0  0  0  0  0  0  0
   11.3005   46.1006   34.4951 H   0  0  0  0  0  0  0  0  0  0  0  0
    8.4379   46.6614   33.3721 H   0  0  0  0  0  0  0  0  0  0  0  0
    7.8043   44.9986   33.5416 H   0  0  0  0  0  0  0  0  0  0  0  0
    9.3944   45.1610   37.8954 H   0  0  0  0  0  0  0  0  0  0  0  0
    8.4487   43.6424   37.9066 H   0  0  0  0  0  0  0  0  0  0  0  0
    8.3282   47.1080   38.8319 H   0  0  0  0  0  0  0  0  0  0  0  0
    5.8557   43.8718   37.4060 H   0  0  0  0  0  0  0  0  0  0  0  0
    6.3143   48.2665   39.6658 H   0  0  0  0  0  0  0  0  0  0  0  0
    3.8512   45.0470   38.2476 H   0  0  0  0  0  0  0  0  0  0  0  0
    4.0753   47.2421   39.3779 H   0  0  0  0  0  0  0  0  0  0  0  0
    9.8309   40.7398   31.7562 H   0  0  0  0  0  0  0  0  0  0  0  0
   11.4000   41.5455   31.4760 H   0  0  0  0  0  0  0  0  0  0  0  0
   11.6987   39.5095   30.3491 H   0  0  0  0  0  0  0  0  0  0  0  0
   10.1129   38.2587   32.6664 H   0  0  0  0  0  0  0  0  0  0  0  0
   13.6800   37.4628   31.2265 H   0  0  0  0  0  0  0  0  0  0  0  0
    8.8953   38.6908   30.8891 H   0  0  0  0  0  0  0  0  0  0  0  0
   11.2831   36.3060   32.4929 H   0  0  0  0  0  0  0  0  0  0  0  0
   11.8859   36.9589   29.7593 H   0  0  0  0  0  0  0  0  0  0  0  0
   12.3360   38.3600   34.7442 H   0  0  0  0  0  0  0  0  0  0  0  0
   16.7572   34.1793   32.4621 H   0  0  0  0  0  0  0  0  0  0  0  0
   15.3528   35.7356   37.5140 H   0  0  0  0  0  0  0  0  0  0  0  0
   16.6362   34.5318   37.1416 H   0  0  0  0  0  0  0  0  0  0  0  0
  1  2  2  0
  1  3  1  0
  3  4  1  0
  4  5  1  0
  6  1  1  0
  7  6  1  0
  6  8  1  0
  8  9  1  0
  9 10  1  0
  9 11  2  0
 10 12  1  0
 12 13  1  0
 13 14  2  0
 15 13  1  0
 14 16  1  0
 17 15  2  0
 16 18  2  0
 18 17  1  0
  4 19  2  0
  4 20  1  0
 21 20  1  0
 21 22  1  0
 22 23  1  0
 22 24  1  0
 23 25  1  0
 24 26  1  0
 24 27  1  0
 27 25  1  0
 25 28  1  0
 27 29  1  0
 30 28  1  0
 31 28  1  0
 32 30  2  0
 30 33  1  0
 34 31  2  0
 35 32  1  0
 33 36  2  0
 33 34  1  0
 37 35  2  0
 37 36  1  0
 36 38  1  0
  6 39  1  6
  7 40  1  0
  7 41  1  0
  8 42  1  0
  8 43  1  0
 12 44  1  0
 12 45  1  0
 14 46  1  0
 15 47  1  0
 16 48  1  0
 17 49  1  0
 18 50  1  0
 21 51  1  0
 21 52  1  0
 22 53  1  0
 24 54  1  0
 25 55  1  0
 26 56  1  0
 27 57  1  0
 29 58  1  0
 31 59  1  0
 35 60  1  0
 38 61  1  0
 38 62  1  0
M  CHG  1   5  -1
M  END
>  <EmbedRMS>  (79) 
0.08898070116541885

$$$$

     RDKit          3D

 62 65  0  0  0  0  0  0  0  0999 V2000
   10.2817   43.7754   33.8102 C   0  0  0  0  0  0  0  0  0  0  0  0
   11.4044   43.5922   34.3665 O   0  0  0  0  0  0  0  0  0  0  0  0
    9.3699   42.7288   33.6987 O   0  0  0  0  0  0  0  0  0  0  0  0
    9.8868   41.2330   34.2836 P   0  0  0  0  0  5  0  0  0  0  0  0
   10.3656   41.4689   35.8745 O   0  0  0  0  0  1  0  0  0  0  0  0
    9.9508   45.1185   33.2486 C   0  0  2  0  0  0  0  0  0  0  0  0
   11.0762   46.0269   33.4747 N   0  0  0  0  0  0  0  0  0  0  0  0
    8.6788   45.6998   33.9057 C   0  0  0  0  0  0  0  0  0  0  0  0
    7.4417   44.9072   33.5947 C   0  0  0  0  0  0  0  0  0  0  0  0
    7.2903   44.3165   32.3367 O   0  0  0  0  0  0  0  0  0  0  0  0
    6.5323   44.8070   34.4628 O   0  0  0  0  0  0  0  0  0  0  0  0
    6.1789   43.4964   31.9970 C   0  0  0  0  0  0  0  0  0  0  0  0
    6.4157   42.8917   30.6451 C   0  0  0  0  0  0  0  0  0  0  0  0
    7.0860   41.6626   30.5279 C   0  0  0  0  0  0  0  0  0  0  0  0
    6.0451   43.5884   29.4834 C   0  0  0  0  0  0  0  0  0  0  0  0
    7.3582   41.1274   29.2649 C   0  0  0  0  0  0  0  0  0  0  0  0
    6.3168   43.0483   28.2223 C   0  0  0  0  0  0  0  0  0  0  0  0
    6.9716   41.8183   28.1132 C   0  0  0  0  0  0  0  0  0  0  0  0
    8.8085   40.1910   34.2064 O   0  0  0  0  0  0  0  0  0  0  0  0
   11.2392   40.7901   33.3687 O   0  0  0  0  0  0  0  0  0  0  0  0
   10.9193   40.6899   31.9953 C   0  0  0  0  0  0  0  0  0  0  0  0
   11.5176   39.3819   31.4408 C   0  0  0  0  0  0  0  0  0  0  0  0
   12.7498   39.0891   32.0747 O   0  0  0  0  0  0  0  0  0  0  0  0
   10.6041   38.1898   31.6673 C   0  0  0  0  0  0  0  0  0  0  0  0
   12.9403   37.6831   32.0273 C   0  0  0  0  0  0  0  0  0  0  0  0
    9.6365   38.0796   30.6503 O   0  0  0  0  0  0  0  0  0  0  0  0
   11.5805   37.0202   31.6935 C   0  0  0  0  0  0  0  0  0  0  0  0
   13.4903   37.2178   33.3235 N   0  0  0  0  0  0  0  0  0  0  0  0
   11.6114   36.3199   30.4674 O   0  0  0  0  0  0  0  0  0  0  0  0
   14.4759   36.3271   33.5730 C   0  0  0  0  0  0  0  0  0  0  0  0
   13.1176   37.6318   34.5686 C   0  0  0  0  0  0  0  0  0  0  0  0
   15.2065   35.6141   32.6742 N   0  0  0  0  0  0  0  0  0  0  0  0
   14.6729   36.2274   34.9184 C   0  0  0  0  0  0  0  0  0  0  0  0
   13.8221   37.0458   35.5782 N   0  0  0  0  0  0  0  0  0  0  0  0
   16.1637   34.7596   33.1549 C   0  0  0  0  0  0  0  0  0  0  0  0
   15.6513   35.3493   35.4133 C   0  0  0  0  0  0  0  0  0  0  0  0
   16.3791   34.6312   34.5044 N   0  0  0  0  0  0  0  0  0  0  0  0
   15.9001   35.1935   36.8091 N   0  0  0  0  0  0  0  0  0  0  0  0
    9.7878   45.0142   32.1519 H   0  0  0  0  0  0  0  0  0  0  0  0
   11.8917   45.6903   32.9112 H   0  0  0  0  0  0  0  0  0  0  0  0
   10.8341   46.9631   33.0754 H   0  0  0  0  0  0  0  0  0  0  0  0
    8.8223   45.7533   35.0078 H   0  0  0  0  0  0  0  0  0  0  0  0
    8.5125   46.7346   33.5370 H   0  0  0  0  0  0  0  0  0  0  0  0
    6.0578   42.6924   32.7562 H   0  0  0  0  0  0  0  0  0  0  0  0
    5.2504   44.1080   31.9908 H   0  0  0  0  0  0  0  0  0  0  0  0
    7.3973   41.1214   31.4127 H   0  0  0  0  0  0  0  0  0  0  0  0
    5.5499   44.5490   29.5544 H   0  0  0  0  0  0  0  0  0  0  0  0
    7.8720   40.1793   29.1776 H   0  0  0  0  0  0  0  0  0  0  0  0
    6.0252   43.5863   27.3295 H   0  0  0  0  0  0  0  0  0  0  0  0
    7.1840   41.4032   27.1364 H   0  0  0  0  0  0  0  0  0  0  0  0
    9.8321   40.7367   31.7556 H   0  0  0  0  0  0  0  0  0  0  0  0
   11.3986   41.5452   31.4729 H   0  0  0  0  0  0  0  0  0  0  0  0
   11.6980   39.5081   30.3482 H   0  0  0  0  0  0  0  0  0  0  0  0
   10.1170   38.2590   32.6698 H   0  0  0  0  0  0  0  0  0  0  0  0
   13.6802   37.4621   31.2262 H   0  0  0  0  0  0  0  0  0  0  0  0
    8.8741   38.6548   30.9192 H   0  0  0  0  0  0  0  0  0  0  0  0
   11.2837   36.3052   32.4923 H   0  0  0  0  0  0  0  0  0  0  0  0
   11.8845   36.9602   29.7588 H   0  0  0  0  0  0  0  0  0  0  0  0
   12.3360   38.3601   34.7439 H   0  0  0  0  0  0  0  0  0  0  0  0
   16.7573   34.1792   32.4622 H   0  0  0  0  0  0  0  0  0  0  0  0
   15.3527   35.7357   37.5139 H   0  0  0  0  0  0  0  0  0  0  0  0
   16.6361   34.5318   37.1416 H   0  0  0  0  0  0  0  0  0  0  0  0
  1  2  2  0
  1  3  1  0
  3  4  1  0
  4  5  1  0
  6  1  1  0
  7  6  1  0
  6  8  1  0
  8  9  1  0
  9 10  1  0
  9 11  2  0
 10 12  1  0
 12 13  1  0
 13 14  2  0
 15 13  1  0
 14 16  1  0
 17 15  2  0
 16 18  2  0
 18 17  1  0
  4 19  2  0
  4 20  1  0
 21 20  1  0
 21 22  1  0
 22 23  1  0
 22 24  1  0
 23 25  1  0
 24 26  1  0
 24 27  1  0
 27 25  1  0
 25 28  1  0
 27 29  1  0
 30 28  1  0
 31 28  1  0
 32 30  2  0
 30 33  1  0
 34 31  2  0
 35 32  1  0
 33 36  2  0
 33 34  1  0
 37 35  2  0
 37 36  1  0
 36 38  1  0
  6 39  1  6
  7 40  1  0
  7 41  1  0
  8 42  1  0
  8 43  1  0
 12 44  1  0
 12 45  1  0
 14 46  1  0
 15 47  1  0
 16 48  1  0
 17 49  1  0
 18 50  1  0
 21 51  1  0
 21 52  1  0
 22 53  1  0
 24 54  1  0
 25 55  1  0
 26 56  1  0
 27 57  1  0
 29 58  1  0
 31 59  1  0
 35 60  1  0
 38 61  1  0
 38 62  1  0
M  CHG  1   5  -1
M  END
>  <EmbedRMS>  (80) 
0.0885923857333737

$$$$

     RDKit          3D

 62 65  0  0  0  0  0  0  0  0999 V2000
   10.2829   43.7755   33.8077 C   0  0  0  0  0  0  0  0  0  0  0  0
   11.4086   43.5914   34.3578 O   0  0  0  0  0  0  0  0  0  0  0  0
    9.3667   42.7319   33.7016 O   0  0  0  0  0  0  0  0  0  0  0  0
    9.8860   41.2347   34.2846 P   0  0  0  0  0  5  0  0  0  0  0  0
   10.3662   41.4696   35.8751 O   0  0  0  0  0  1  0  0  0  0  0  0
    9.9537   45.1117   33.2432 C   0  0  2  0  0  0  0  0  0  0  0  0
   11.0724   46.0269   33.4848 N   0  0  0  0  0  0  0  0  0  0  0  0
    8.6404   45.6446   33.8537 C   0  0  0  0  0  0  0  0  0  0  0  0
    8.2202   46.9299   33.2115 C   0  0  0  0  0  0  0  0  0  0  0  0
    7.6589   46.9056   31.9299 O   0  0  0  0  0  0  0  0  0  0  0  0
    8.4045   48.0221   33.8151 O   0  0  0  0  0  0  0  0  0  0  0  0
    7.2160   48.0763   31.2472 C   0  0  0  0  0  0  0  0  0  0  0  0
    5.9551   48.6047   31.8749 C   0  0  0  0  0  0  0  0  0  0  0  0
    5.9597   49.8209   32.5786 C   0  0  0  0  0  0  0  0  0  0  0  0
    4.7642   47.8662   31.7832 C   0  0  0  0  0  0  0  0  0  0  0  0
    4.7858   50.2933   33.1741 C   0  0  0  0  0  0  0  0  0  0  0  0
    3.5925   48.3423   32.3800 C   0  0  0  0  0  0  0  0  0  0  0  0
    3.6032   49.5552   33.0744 C   0  0  0  0  0  0  0  0  0  0  0  0
    8.8089   40.1914   34.2081 O   0  0  0  0  0  0  0  0  0  0  0  0
   11.2385   40.7916   33.3693 O   0  0  0  0  0  0  0  0  0  0  0  0
   10.9187   40.6906   31.9959 C   0  0  0  0  0  0  0  0  0  0  0  0
   11.5175   39.3824   31.4412 C   0  0  0  0  0  0  0  0  0  0  0  0
   12.7494   39.0893   32.0756 O   0  0  0  0  0  0  0  0  0  0  0  0
   10.6036   38.1900   31.6660 C   0  0  0  0  0  0  0  0  0  0  0  0
   12.9401   37.6834   32.0276 C   0  0  0  0  0  0  0  0  0  0  0  0
    9.6376   38.0785   30.6474 O   0  0  0  0  0  0  0  0  0  0  0  0
   11.5803   37.0204   31.6937 C   0  0  0  0  0  0  0  0  0  0  0  0
   13.4902   37.2177   33.3237 N   0  0  0  0  0  0  0  0  0  0  0  0
   11.6118   36.3193   30.4680 O   0  0  0  0  0  0  0  0  0  0  0  0
   14.4759   36.3271   33.5731 C   0  0  0  0  0  0  0  0  0  0  0  0
   13.1176   37.6317   34.5688 C   0  0  0  0  0  0  0  0  0  0  0  0
   15.2064   35.6142   32.6742 N   0  0  0  0  0  0  0  0  0  0  0  0
   14.6729   36.2274   34.9184 C   0  0  0  0  0  0  0  0  0  0  0  0
   13.8221   37.0457   35.5783 N   0  0  0  0  0  0  0  0  0  0  0  0
   16.1637   34.7597   33.1549 C   0  0  0  0  0  0  0  0  0  0  0  0
   15.6514   35.3493   35.4133 C   0  0  0  0  0  0  0  0  0  0  0  0
   16.3791   34.6312   34.5044 N   0  0  0  0  0  0  0  0  0  0  0  0
   15.9002   35.1935   36.8091 N   0  0  0  0  0  0  0  0  0  0  0  0
    9.8215   44.9848   32.1454 H   0  0  0  0  0  0  0  0  0  0  0  0
   10.9392   46.8872   32.9054 H   0  0  0  0  0  0  0  0  0  0  0  0
   11.0792   46.3214   34.4893 H   0  0  0  0  0  0  0  0  0  0  0  0
    8.7565   45.7889   34.9508 H   0  0  0  0  0  0  0  0  0  0  0  0
    7.8261   44.9041   33.6979 H   0  0  0  0  0  0  0  0  0  0  0  0
    8.0238   48.8409   31.2427 H   0  0  0  0  0  0  0  0  0  0  0  0
    7.0076   47.8124   30.1889 H   0  0  0  0  0  0  0  0  0  0  0  0
    6.8695   50.4012   32.6685 H   0  0  0  0  0  0  0  0  0  0  0  0
    4.7452   46.9228   31.2515 H   0  0  0  0  0  0  0  0  0  0  0  0
    4.7935   51.2311   33.7146 H   0  0  0  0  0  0  0  0  0  0  0  0
    2.6769   47.7701   32.3056 H   0  0  0  0  0  0  0  0  0  0  0  0
    2.6958   49.9221   33.5365 H   0  0  0  0  0  0  0  0  0  0  0  0
   11.3992   41.5454   31.4737 H   0  0  0  0  0  0  0  0  0  0  0  0
    9.8307   40.7395   31.7563 H   0  0  0  0  0  0  0  0  0  0  0  0
   11.6989   39.5090   30.3489 H   0  0  0  0  0  0  0  0  0  0  0  0
   10.1130   38.2589   32.6664 H   0  0  0  0  0  0  0  0  0  0  0  0
   13.6800   37.4628   31.2265 H   0  0  0  0  0  0  0  0  0  0  0  0
    8.8952   38.6908   30.8892 H   0  0  0  0  0  0  0  0  0  0  0  0
   11.2830   36.3060   32.4929 H   0  0  0  0  0  0  0  0  0  0  0  0
   11.8859   36.9589   29.7593 H   0  0  0  0  0  0  0  0  0  0  0  0
   12.3360   38.3600   34.7442 H   0  0  0  0  0  0  0  0  0  0  0  0
   16.7572   34.1793   32.4621 H   0  0  0  0  0  0  0  0  0  0  0  0
   16.6362   34.5318   37.1416 H   0  0  0  0  0  0  0  0  0  0  0  0
   15.3528   35.7356   37.5140 H   0  0  0  0  0  0  0  0  0  0  0  0
  1  2  2  0
  1  3  1  0
  3  4  1  0
  4  5  1  0
  6  1  1  0
  7  6  1  0
  6  8  1  0
  8  9  1  0
  9 10  1  0
  9 11  2  0
 10 12  1  0
 12 13  1  0
 13 14  2  0
 15 13  1  0
 14 16  1  0
 17 15  2  0
 16 18  2  0
 18 17  1  0
  4 19  2  0
  4 20  1  0
 21 20  1  0
 21 22  1  0
 22 23  1  0
 22 24  1  0
 23 25  1  0
 24 26  1  0
 24 27  1  0
 27 25  1  0
 25 28  1  0
 27 29  1  0
 30 28  1  0
 31 28  1  0
 32 30  2  0
 30 33  1  0
 34 31  2  0
 35 32  1  0
 33 36  2  0
 33 34  1  0
 37 35  2  0
 37 36  1  0
 36 38  1  0
  6 39  1  6
  7 40  1  0
  7 41  1  0
  8 42  1  0
  8 43  1  0
 12 44  1  0
 12 45  1  0
 14 46  1  0
 15 47  1  0
 16 48  1  0
 17 49  1  0
 18 50  1  0
 21 51  1  0
 21 52  1  0
 22 53  1  0
 24 54  1  0
 25 55  1  0
 26 56  1  0
 27 57  1  0
 29 58  1  0
 31 59  1  0
 35 60  1  0
 38 61  1  0
 38 62  1  0
M  CHG  1   5  -1
M  END
>  <EmbedRMS>  (81) 
0.08803342060108085

$$$$

     RDKit          3D

 62 65  0  0  0  0  0  0  0  0999 V2000
   10.2872   43.7712   33.8022 C   0  0  0  0  0  0  0  0  0  0  0  0
   11.4094   43.5878   34.3593 O   0  0  0  0  0  0  0  0  0  0  0  0
    9.3681   42.7305   33.6979 O   0  0  0  0  0  0  0  0  0  0  0  0
    9.8856   41.2341   34.2833 P   0  0  0  0  0  5  0  0  0  0  0  0
   10.3659   41.4708   35.8738 O   0  0  0  0  0  1  0  0  0  0  0  0
    9.9519   45.1156   33.2558 C   0  0  2  0  0  0  0  0  0  0  0  0
   11.0707   46.0335   33.4777 N   0  0  0  0  0  0  0  0  0  0  0  0
    8.6625   45.6649   33.8996 C   0  0  0  0  0  0  0  0  0  0  0  0
    8.7971   45.8394   35.3834 C   0  0  0  0  0  0  0  0  0  0  0  0
    8.5632   44.7469   36.2262 O   0  0  0  0  0  0  0  0  0  0  0  0
    9.1600   46.9519   35.8538 O   0  0  0  0  0  0  0  0  0  0  0  0
    8.6800   44.8123   37.6452 C   0  0  0  0  0  0  0  0  0  0  0  0
    7.5355   45.5933   38.2300 C   0  0  0  0  0  0  0  0  0  0  0  0
    6.2315   45.0754   38.1708 C   0  0  0  0  0  0  0  0  0  0  0  0
    7.7511   46.8533   38.8131 C   0  0  0  0  0  0  0  0  0  0  0  0
    5.1598   45.8044   38.6957 C   0  0  0  0  0  0  0  0  0  0  0  0
    6.6765   47.5792   39.3367 C   0  0  0  0  0  0  0  0  0  0  0  0
    5.3821   47.0550   39.2788 C   0  0  0  0  0  0  0  0  0  0  0  0
    8.8076   40.1916   34.2085 O   0  0  0  0  0  0  0  0  0  0  0  0
   11.2371   40.7897   33.3666 O   0  0  0  0  0  0  0  0  0  0  0  0
   10.9145   40.6849   31.9935 C   0  0  0  0  0  0  0  0  0  0  0  0
   11.5167   39.3773   31.4394 C   0  0  0  0  0  0  0  0  0  0  0  0
   12.7473   39.0854   32.0739 O   0  0  0  0  0  0  0  0  0  0  0  0
   10.6047   38.1867   31.6670 C   0  0  0  0  0  0  0  0  0  0  0  0
   12.9346   37.6790   32.0282 C   0  0  0  0  0  0  0  0  0  0  0  0
    9.6379   38.0918   30.6489 O   0  0  0  0  0  0  0  0  0  0  0  0
   11.5761   37.0129   31.7057 C   0  0  0  0  0  0  0  0  0  0  0  0
   13.4909   37.2177   33.3233 N   0  0  0  0  0  0  0  0  0  0  0  0
   11.6234   36.3371   30.4684 O   0  0  0  0  0  0  0  0  0  0  0  0
   14.4765   36.3271   33.5727 C   0  0  0  0  0  0  0  0  0  0  0  0
   13.1182   37.6315   34.5685 C   0  0  0  0  0  0  0  0  0  0  0  0
   15.2066   35.6137   32.6739 N   0  0  0  0  0  0  0  0  0  0  0  0
   14.6736   36.2276   34.9182 C   0  0  0  0  0  0  0  0  0  0  0  0
   13.8227   37.0457   35.5781 N   0  0  0  0  0  0  0  0  0  0  0  0
   16.1638   34.7593   33.1548 C   0  0  0  0  0  0  0  0  0  0  0  0
   15.6517   35.3493   35.4131 C   0  0  0  0  0  0  0  0  0  0  0  0
   16.3792   34.6309   34.5043 N   0  0  0  0  0  0  0  0  0  0  0  0
   15.9002   35.1934   36.8090 N   0  0  0  0  0  0  0  0  0  0  0  0
    9.7774   45.0096   32.1614 H   0  0  0  0  0  0  0  0  0  0  0  0
   10.8084   46.9725   33.0985 H   0  0  0  0  0  0  0  0  0  0  0  0
   11.8804   45.7138   32.8964 H   0  0  0  0  0  0  0  0  0  0  0  0
    7.8162   44.9746   33.6919 H   0  0  0  0  0  0  0  0  0  0  0  0
    8.4030   46.6410   33.4347 H   0  0  0  0  0  0  0  0  0  0  0  0
    8.6551   43.7787   38.0506 H   0  0  0  0  0  0  0  0  0  0  0  0
    9.6628   45.2516   37.9250 H   0  0  0  0  0  0  0  0  0  0  0  0
    6.0467   44.1095   37.7170 H   0  0  0  0  0  0  0  0  0  0  0  0
    8.7476   47.2744   38.8607 H   0  0  0  0  0  0  0  0  0  0  0  0
    4.1567   45.4006   38.6487 H   0  0  0  0  0  0  0  0  0  0  0  0
    6.8470   48.5491   39.7858 H   0  0  0  0  0  0  0  0  0  0  0  0
    4.5515   47.6184   39.6839 H   0  0  0  0  0  0  0  0  0  0  0  0
   11.3877   41.5415   31.4677 H   0  0  0  0  0  0  0  0  0  0  0  0
    9.8245   40.7213   31.7567 H   0  0  0  0  0  0  0  0  0  0  0  0
   11.6986   39.5014   30.3468 H   0  0  0  0  0  0  0  0  0  0  0  0
   10.1095   38.2771   32.6629 H   0  0  0  0  0  0  0  0  0  0  0  0
   13.6673   37.4544   31.2213 H   0  0  0  0  0  0  0  0  0  0  0  0
    8.9779   37.4158   30.9534 H   0  0  0  0  0  0  0  0  0  0  0  0
   11.2861   36.3041   32.5177 H   0  0  0  0  0  0  0  0  0  0  0  0
   10.8689   35.6918   30.4657 H   0  0  0  0  0  0  0  0  0  0  0  0
   12.3355   38.3586   34.7440 H   0  0  0  0  0  0  0  0  0  0  0  0
   16.7572   34.1786   32.4621 H   0  0  0  0  0  0  0  0  0  0  0  0
   16.6361   34.5315   37.1415 H   0  0  0  0  0  0  0  0  0  0  0  0
   15.3530   35.7358   37.5138 H   0  0  0  0  0  0  0  0  0  0  0  0
  1  2  2  0
  1  3  1  0
  3  4  1  0
  4  5  1  0
  6  1  1  0
  7  6  1  0
  6  8  1  0
  8  9  1  0
  9 10  1  0
  9 11  2  0
 10 12  1  0
 12 13  1  0
 13 14  2  0
 15 13  1  0
 14 16  1  0
 17 15  2  0
 16 18  2  0
 18 17  1  0
  4 19  2  0
  4 20  1  0
 21 20  1  0
 21 22  1  0
 22 23  1  0
 22 24  1  0
 23 25  1  0
 24 26  1  0
 24 27  1  0
 27 25  1  0
 25 28  1  0
 27 29  1  0
 30 28  1  0
 31 28  1  0
 32 30  2  0
 30 33  1  0
 34 31  2  0
 35 32  1  0
 33 36  2  0
 33 34  1  0
 37 35  2  0
 37 36  1  0
 36 38  1  0
  6 39  1  6
  7 40  1  0
  7 41  1  0
  8 42  1  0
  8 43  1  0
 12 44  1  0
 12 45  1  0
 14 46  1  0
 15 47  1  0
 16 48  1  0
 17 49  1  0
 18 50  1  0
 21 51  1  0
 21 52  1  0
 22 53  1  0
 24 54  1  0
 25 55  1  0
 26 56  1  0
 27 57  1  0
 29 58  1  0
 31 59  1  0
 35 60  1  0
 38 61  1  0
 38 62  1  0
M  CHG  1   5  -1
M  END
>  <EmbedRMS>  (82) 
0.08903554919683289

$$$$

     RDKit          3D

 62 65  0  0  0  0  0  0  0  0999 V2000
   10.2862   43.7719   33.8046 C   0  0  0  0  0  0  0  0  0  0  0  0
   11.4086   43.5884   34.3611 O   0  0  0  0  0  0  0  0  0  0  0  0
    9.3678   42.7307   33.6989 O   0  0  0  0  0  0  0  0  0  0  0  0
    9.8859   41.2338   34.2836 P   0  0  0  0  0  5  0  0  0  0  0  0
   10.3654   41.4699   35.8743 O   0  0  0  0  0  1  0  0  0  0  0  0
    9.9529   45.1148   33.2536 C   0  0  2  0  0  0  0  0  0  0  0  0
   11.0713   46.0332   33.4764 N   0  0  0  0  0  0  0  0  0  0  0  0
    8.6605   45.6659   33.8896 C   0  0  0  0  0  0  0  0  0  0  0  0
    8.7948   45.8695   35.3695 C   0  0  0  0  0  0  0  0  0  0  0  0
    9.3468   47.0612   35.8527 O   0  0  0  0  0  0  0  0  0  0  0  0
    8.4461   44.9521   36.1619 O   0  0  0  0  0  0  0  0  0  0  0  0
    9.5118   47.3406   37.2410 C   0  0  0  0  0  0  0  0  0  0  0  0
    8.1784   47.6020   37.8864 C   0  0  0  0  0  0  0  0  0  0  0  0
    7.6383   46.6915   38.8103 C   0  0  0  0  0  0  0  0  0  0  0  0
    7.4485   48.7523   37.5455 C   0  0  0  0  0  0  0  0  0  0  0  0
    6.3891   46.9350   39.3898 C   0  0  0  0  0  0  0  0  0  0  0  0
    6.1998   48.9922   38.1275 C   0  0  0  0  0  0  0  0  0  0  0  0
    5.6707   48.0846   39.0495 C   0  0  0  0  0  0  0  0  0  0  0  0
    8.8083   40.1911   34.2077 O   0  0  0  0  0  0  0  0  0  0  0  0
   11.2386   40.7898   33.3687 O   0  0  0  0  0  0  0  0  0  0  0  0
   10.9197   40.6894   31.9949 C   0  0  0  0  0  0  0  0  0  0  0  0
   11.5172   39.3800   31.4397 C   0  0  0  0  0  0  0  0  0  0  0  0
   12.7480   39.0860   32.0732 O   0  0  0  0  0  0  0  0  0  0  0  0
   10.6032   38.1891   31.6666 C   0  0  0  0  0  0  0  0  0  0  0  0
   12.9336   37.6796   32.0279 C   0  0  0  0  0  0  0  0  0  0  0  0
    9.6397   38.0777   30.6456 O   0  0  0  0  0  0  0  0  0  0  0  0
   11.5739   37.0154   31.7057 C   0  0  0  0  0  0  0  0  0  0  0  0
   13.4903   37.2178   33.3231 N   0  0  0  0  0  0  0  0  0  0  0  0
   11.6211   36.3376   30.4695 O   0  0  0  0  0  0  0  0  0  0  0  0
   14.4761   36.3273   33.5725 C   0  0  0  0  0  0  0  0  0  0  0  0
   13.1179   37.6316   34.5684 C   0  0  0  0  0  0  0  0  0  0  0  0
   15.2063   35.6139   32.6737 N   0  0  0  0  0  0  0  0  0  0  0  0
   14.6734   36.2277   34.9180 C   0  0  0  0  0  0  0  0  0  0  0  0
   13.8225   37.0459   35.5779 N   0  0  0  0  0  0  0  0  0  0  0  0
   16.1636   34.7594   33.1546 C   0  0  0  0  0  0  0  0  0  0  0  0
   15.6515   35.3494   35.4129 C   0  0  0  0  0  0  0  0  0  0  0  0
   16.3791   34.6311   34.5041 N   0  0  0  0  0  0  0  0  0  0  0  0
   15.9001   35.1935   36.8088 N   0  0  0  0  0  0  0  0  0  0  0  0
    9.7829   45.0052   32.1588 H   0  0  0  0  0  0  0  0  0  0  0  0
   11.8825   45.7124   32.8980 H   0  0  0  0  0  0  0  0  0  0  0  0
   10.8099   46.9715   33.0947 H   0  0  0  0  0  0  0  0  0  0  0  0
    8.4025   46.6377   33.4161 H   0  0  0  0  0  0  0  0  0  0  0  0
    7.8146   44.9736   33.6841 H   0  0  0  0  0  0  0  0  0  0  0  0
   10.0493   46.5015   37.7350 H   0  0  0  0  0  0  0  0  0  0  0  0
   10.1467   48.2454   37.3477 H   0  0  0  0  0  0  0  0  0  0  0  0
    8.1811   45.7940   39.0800 H   0  0  0  0  0  0  0  0  0  0  0  0
    7.8464   49.4601   36.8289 H   0  0  0  0  0  0  0  0  0  0  0  0
    5.9771   46.2315   40.1017 H   0  0  0  0  0  0  0  0  0  0  0  0
    5.6415   49.8807   37.8625 H   0  0  0  0  0  0  0  0  0  0  0  0
    4.7038   48.2712   39.4985 H   0  0  0  0  0  0  0  0  0  0  0  0
   11.4016   41.5436   31.4731 H   0  0  0  0  0  0  0  0  0  0  0  0
    9.8319   40.7398   31.7546 H   0  0  0  0  0  0  0  0  0  0  0  0
   11.6983   39.5042   30.3470 H   0  0  0  0  0  0  0  0  0  0  0  0
   10.1091   38.2632   32.6649 H   0  0  0  0  0  0  0  0  0  0  0  0
   13.6656   37.4539   31.2207 H   0  0  0  0  0  0  0  0  0  0  0  0
    8.8966   38.6901   30.8852 H   0  0  0  0  0  0  0  0  0  0  0  0
   11.2846   36.3060   32.5175 H   0  0  0  0  0  0  0  0  0  0  0  0
   10.8523   35.7094   30.4590 H   0  0  0  0  0  0  0  0  0  0  0  0
   12.3353   38.3588   34.7439 H   0  0  0  0  0  0  0  0  0  0  0  0
   16.7570   34.1788   32.4619 H   0  0  0  0  0  0  0  0  0  0  0  0
   15.3529   35.7359   37.5136 H   0  0  0  0  0  0  0  0  0  0  0  0
   16.6360   34.5317   37.1414 H   0  0  0  0  0  0  0  0  0  0  0  0
  1  2  2  0
  1  3  1  0
  3  4  1  0
  4  5  1  0
  6  1  1  0
  7  6  1  0
  6  8  1  0
  8  9  1  0
  9 10  1  0
  9 11  2  0
 10 12  1  0
 12 13  1  0
 13 14  2  0
 15 13  1  0
 14 16  1  0
 17 15  2  0
 16 18  2  0
 18 17  1  0
  4 19  2  0
  4 20  1  0
 21 20  1  0
 21 22  1  0
 22 23  1  0
 22 24  1  0
 23 25  1  0
 24 26  1  0
 24 27  1  0
 27 25  1  0
 25 28  1  0
 27 29  1  0
 30 28  1  0
 31 28  1  0
 32 30  2  0
 30 33  1  0
 34 31  2  0
 35 32  1  0
 33 36  2  0
 33 34  1  0
 37 35  2  0
 37 36  1  0
 36 38  1  0
  6 39  1  6
  7 40  1  0
  7 41  1  0
  8 42  1  0
  8 43  1  0
 12 44  1  0
 12 45  1  0
 14 46  1  0
 15 47  1  0
 16 48  1  0
 17 49  1  0
 18 50  1  0
 21 51  1  0
 21 52  1  0
 22 53  1  0
 24 54  1  0
 25 55  1  0
 26 56  1  0
 27 57  1  0
 29 58  1  0
 31 59  1  0
 35 60  1  0
 38 61  1  0
 38 62  1  0
M  CHG  1   5  -1
M  END
>  <EmbedRMS>  (83) 
0.08946994313687723

$$$$

     RDKit          3D

 62 65  0  0  0  0  0  0  0  0999 V2000
   10.2858   43.7730   33.8073 C   0  0  0  0  0  0  0  0  0  0  0  0
   11.4092   43.5892   34.3616 O   0  0  0  0  0  0  0  0  0  0  0  0
    9.3678   42.7314   33.7012 O   0  0  0  0  0  0  0  0  0  0  0  0
    9.8855   41.2340   34.2842 P   0  0  0  0  0  5  0  0  0  0  0  0
   10.3643   41.4667   35.8750 O   0  0  0  0  0  1  0  0  0  0  0  0
    9.9528   45.1145   33.2532 C   0  0  2  0  0  0  0  0  0  0  0  0
   11.0716   46.0333   33.4731 N   0  0  0  0  0  0  0  0  0  0  0  0
    8.6593   45.6684   33.8859 C   0  0  0  0  0  0  0  0  0  0  0  0
    8.8302   45.9891   35.3413 C   0  0  0  0  0  0  0  0  0  0  0  0
    8.8615   44.9502   36.2785 O   0  0  0  0  0  0  0  0  0  0  0  0
    8.9759   47.1884   35.7036 O   0  0  0  0  0  0  0  0  0  0  0  0
    9.1577   45.1514   37.6586 C   0  0  0  0  0  0  0  0  0  0  0  0
   10.6109   45.5001   37.8352 C   0  0  0  0  0  0  0  0  0  0  0  0
   11.5970   44.5238   37.6215 C   0  0  0  0  0  0  0  0  0  0  0  0
   10.9985   46.8090   38.1678 C   0  0  0  0  0  0  0  0  0  0  0  0
   12.9508   44.8503   37.7447 C   0  0  0  0  0  0  0  0  0  0  0  0
   12.3537   47.1316   38.2915 C   0  0  0  0  0  0  0  0  0  0  0  0
   13.3291   46.1532   38.0800 C   0  0  0  0  0  0  0  0  0  0  0  0
    8.8080   40.1913   34.2068 O   0  0  0  0  0  0  0  0  0  0  0  0
   11.2384   40.7910   33.3696 O   0  0  0  0  0  0  0  0  0  0  0  0
   10.9190   40.6907   31.9961 C   0  0  0  0  0  0  0  0  0  0  0  0
   11.5176   39.3824   31.4412 C   0  0  0  0  0  0  0  0  0  0  0  0
   12.7495   39.0893   32.0756 O   0  0  0  0  0  0  0  0  0  0  0  0
   10.6036   38.1900   31.6660 C   0  0  0  0  0  0  0  0  0  0  0  0
   12.9401   37.6834   32.0276 C   0  0  0  0  0  0  0  0  0  0  0  0
    9.6377   38.0786   30.6475 O   0  0  0  0  0  0  0  0  0  0  0  0
   11.5803   37.0204   31.6937 C   0  0  0  0  0  0  0  0  0  0  0  0
   13.4902   37.2177   33.3237 N   0  0  0  0  0  0  0  0  0  0  0  0
   11.6117   36.3193   30.4680 O   0  0  0  0  0  0  0  0  0  0  0  0
   14.4758   36.3271   33.5731 C   0  0  0  0  0  0  0  0  0  0  0  0
   13.1176   37.6318   34.5688 C   0  0  0  0  0  0  0  0  0  0  0  0
   15.2064   35.6142   32.6742 N   0  0  0  0  0  0  0  0  0  0  0  0
   14.6729   36.2274   34.9185 C   0  0  0  0  0  0  0  0  0  0  0  0
   13.8222   37.0458   35.5784 N   0  0  0  0  0  0  0  0  0  0  0  0
   16.1637   34.7597   33.1549 C   0  0  0  0  0  0  0  0  0  0  0  0
   15.6514   35.3493   35.4133 C   0  0  0  0  0  0  0  0  0  0  0  0
   16.3791   34.6312   34.5044 N   0  0  0  0  0  0  0  0  0  0  0  0
   15.9001   35.1935   36.8091 N   0  0  0  0  0  0  0  0  0  0  0  0
    9.7831   44.9995   32.1589 H   0  0  0  0  0  0  0  0  0  0  0  0
   11.8821   45.7119   32.8939 H   0  0  0  0  0  0  0  0  0  0  0  0
   10.8086   46.9710   33.0909 H   0  0  0  0  0  0  0  0  0  0  0  0
    8.3525   46.5872   33.3397 H   0  0  0  0  0  0  0  0  0  0  0  0
    7.8325   44.9346   33.7699 H   0  0  0  0  0  0  0  0  0  0  0  0
    8.4946   45.9393   38.0786 H   0  0  0  0  0  0  0  0  0  0  0  0
    8.9412   44.2114   38.2088 H   0  0  0  0  0  0  0  0  0  0  0  0
   11.3167   43.5127   37.3577 H   0  0  0  0  0  0  0  0  0  0  0  0
   10.2544   47.5796   38.3265 H   0  0  0  0  0  0  0  0  0  0  0  0
   13.7066   44.0937   37.5782 H   0  0  0  0  0  0  0  0  0  0  0  0
   12.6478   48.1411   38.5479 H   0  0  0  0  0  0  0  0  0  0  0  0
   14.3775   46.4049   38.1742 H   0  0  0  0  0  0  0  0  0  0  0  0
   11.4001   41.5455   31.4744 H   0  0  0  0  0  0  0  0  0  0  0  0
    9.8312   40.7400   31.7559 H   0  0  0  0  0  0  0  0  0  0  0  0
   11.6990   39.5091   30.3489 H   0  0  0  0  0  0  0  0  0  0  0  0
   10.1131   38.2590   32.6664 H   0  0  0  0  0  0  0  0  0  0  0  0
   13.6800   37.4627   31.2266 H   0  0  0  0  0  0  0  0  0  0  0  0
    8.8954   38.6910   30.8891 H   0  0  0  0  0  0  0  0  0  0  0  0
   11.2830   36.3060   32.4929 H   0  0  0  0  0  0  0  0  0  0  0  0
   11.8859   36.9589   29.7593 H   0  0  0  0  0  0  0  0  0  0  0  0
   12.3361   38.3601   34.7442 H   0  0  0  0  0  0  0  0  0  0  0  0
   16.7572   34.1793   32.4621 H   0  0  0  0  0  0  0  0  0  0  0  0
   16.6362   34.5318   37.1416 H   0  0  0  0  0  0  0  0  0  0  0  0
   15.3528   35.7357   37.5140 H   0  0  0  0  0  0  0  0  0  0  0  0
  1  2  2  0
  1  3  1  0
  3  4  1  0
  4  5  1  0
  6  1  1  0
  7  6  1  0
  6  8  1  0
  8  9  1  0
  9 10  1  0
  9 11  2  0
 10 12  1  0
 12 13  1  0
 13 14  2  0
 15 13  1  0
 14 16  1  0
 17 15  2  0
 16 18  2  0
 18 17  1  0
  4 19  2  0
  4 20  1  0
 21 20  1  0
 21 22  1  0
 22 23  1  0
 22 24  1  0
 23 25  1  0
 24 26  1  0
 24 27  1  0
 27 25  1  0
 25 28  1  0
 27 29  1  0
 30 28  1  0
 31 28  1  0
 32 30  2  0
 30 33  1  0
 34 31  2  0
 35 32  1  0
 33 36  2  0
 33 34  1  0
 37 35  2  0
 37 36  1  0
 36 38  1  0
  6 39  1  6
  7 40  1  0
  7 41  1  0
  8 42  1  0
  8 43  1  0
 12 44  1  0
 12 45  1  0
 14 46  1  0
 15 47  1  0
 16 48  1  0
 17 49  1  0
 18 50  1  0
 21 51  1  0
 21 52  1  0
 22 53  1  0
 24 54  1  0
 25 55  1  0
 26 56  1  0
 27 57  1  0
 29 58  1  0
 31 59  1  0
 35 60  1  0
 38 61  1  0
 38 62  1  0
M  CHG  1   5  -1
M  END
>  <EmbedRMS>  (84) 
0.08858691244358335

$$$$

     RDKit          3D

 62 65  0  0  0  0  0  0  0  0999 V2000
   10.2872   43.7712   33.8023 C   0  0  0  0  0  0  0  0  0  0  0  0
   11.4094   43.5877   34.3593 O   0  0  0  0  0  0  0  0  0  0  0  0
    9.3680   42.7306   33.6980 O   0  0  0  0  0  0  0  0  0  0  0  0
    9.8852   41.2342   34.2841 P   0  0  0  0  0  5  0  0  0  0  0  0
   10.3653   41.4711   35.8746 O   0  0  0  0  0  1  0  0  0  0  0  0
    9.9520   45.1155   33.2556 C   0  0  2  0  0  0  0  0  0  0  0  0
   11.0707   46.0335   33.4777 N   0  0  0  0  0  0  0  0  0  0  0  0
    8.6623   45.6648   33.8989 C   0  0  0  0  0  0  0  0  0  0  0  0
    8.7963   45.8394   35.3827 C   0  0  0  0  0  0  0  0  0  0  0  0
    8.5623   44.7468   36.2254 O   0  0  0  0  0  0  0  0  0  0  0  0
    9.1585   46.9521   35.8532 O   0  0  0  0  0  0  0  0  0  0  0  0
    8.6779   44.8126   37.6446 C   0  0  0  0  0  0  0  0  0  0  0  0
    7.5321   45.5928   38.2283 C   0  0  0  0  0  0  0  0  0  0  0  0
    6.2286   45.0739   38.1677 C   0  0  0  0  0  0  0  0  0  0  0  0
    7.7462   46.8529   38.8115 C   0  0  0  0  0  0  0  0  0  0  0  0
    5.1558   45.8020   38.6914 C   0  0  0  0  0  0  0  0  0  0  0  0
    6.6705   47.5780   39.3339 C   0  0  0  0  0  0  0  0  0  0  0  0
    5.3766   47.0528   39.2747 C   0  0  0  0  0  0  0  0  0  0  0  0
    8.8074   40.1916   34.2090 O   0  0  0  0  0  0  0  0  0  0  0  0
   11.2368   40.7893   33.3685 O   0  0  0  0  0  0  0  0  0  0  0  0
   10.9154   40.6881   31.9953 C   0  0  0  0  0  0  0  0  0  0  0  0
   11.5261   39.3871   31.4366 C   0  0  0  0  0  0  0  0  0  0  0  0
   12.7492   39.0893   32.0819 O   0  0  0  0  0  0  0  0  0  0  0  0
   10.6123   38.1893   31.6461 C   0  0  0  0  0  0  0  0  0  0  0  0
   12.9373   37.6827   32.0301 C   0  0  0  0  0  0  0  0  0  0  0  0
    9.6150   38.0839   30.6538 O   0  0  0  0  0  0  0  0  0  0  0  0
   11.5793   37.0136   31.7014 C   0  0  0  0  0  0  0  0  0  0  0  0
   13.4906   37.2169   33.3242 N   0  0  0  0  0  0  0  0  0  0  0  0
   11.6216   36.3252   30.4725 O   0  0  0  0  0  0  0  0  0  0  0  0
   14.4763   36.3266   33.5731 C   0  0  0  0  0  0  0  0  0  0  0  0
   13.1181   37.6308   34.5694 C   0  0  0  0  0  0  0  0  0  0  0  0
   15.2065   35.6137   32.6740 N   0  0  0  0  0  0  0  0  0  0  0  0
   14.6735   36.2270   34.9185 C   0  0  0  0  0  0  0  0  0  0  0  0
   13.8229   37.0451   35.5787 N   0  0  0  0  0  0  0  0  0  0  0  0
   16.1639   34.7593   33.1547 C   0  0  0  0  0  0  0  0  0  0  0  0
   15.6519   35.3489   35.4132 C   0  0  0  0  0  0  0  0  0  0  0  0
   16.3794   34.6308   34.5042 N   0  0  0  0  0  0  0  0  0  0  0  0
   15.9006   35.1931   36.8090 N   0  0  0  0  0  0  0  0  0  0  0  0
    9.7779   45.0094   32.1612 H   0  0  0  0  0  0  0  0  0  0  0  0
   11.8805   45.7138   32.8967 H   0  0  0  0  0  0  0  0  0  0  0  0
   10.8083   46.9725   33.0984 H   0  0  0  0  0  0  0  0  0  0  0  0
    7.8161   44.9745   33.6909 H   0  0  0  0  0  0  0  0  0  0  0  0
    8.4030   46.6409   33.4339 H   0  0  0  0  0  0  0  0  0  0  0  0
    9.6600   45.2527   37.9252 H   0  0  0  0  0  0  0  0  0  0  0  0
    8.6534   43.7790   38.0501 H   0  0  0  0  0  0  0  0  0  0  0  0
    6.0450   44.1078   37.7137 H   0  0  0  0  0  0  0  0  0  0  0  0
    8.7423   47.2748   38.8600 H   0  0  0  0  0  0  0  0  0  0  0  0
    4.1530   45.3974   38.6434 H   0  0  0  0  0  0  0  0  0  0  0  0
    6.8398   48.5480   39.7832 H   0  0  0  0  0  0  0  0  0  0  0  0
    4.5451   47.6156   39.6790 H   0  0  0  0  0  0  0  0  0  0  0  0
    9.8253   40.7180   31.7582 H   0  0  0  0  0  0  0  0  0  0  0  0
   11.3829   41.5504   31.4735 H   0  0  0  0  0  0  0  0  0  0  0  0
   11.7290   39.5289   30.3505 H   0  0  0  0  0  0  0  0  0  0  0  0
   10.1139   38.2718   32.6380 H   0  0  0  0  0  0  0  0  0  0  0  0
   13.6726   37.4636   31.2240 H   0  0  0  0  0  0  0  0  0  0  0  0
   10.0536   38.1086   29.7639 H   0  0  0  0  0  0  0  0  0  0  0  0
   11.2646   36.3134   32.5107 H   0  0  0  0  0  0  0  0  0  0  0  0
   12.1549   35.5032   30.6315 H   0  0  0  0  0  0  0  0  0  0  0  0
   12.3362   38.3586   34.7450 H   0  0  0  0  0  0  0  0  0  0  0  0
   16.7573   34.1788   32.4619 H   0  0  0  0  0  0  0  0  0  0  0  0
   16.6366   34.5314   37.1415 H   0  0  0  0  0  0  0  0  0  0  0  0
   15.3533   35.7353   37.5139 H   0  0  0  0  0  0  0  0  0  0  0  0
  1  2  2  0
  1  3  1  0
  3  4  1  0
  4  5  1  0
  6  1  1  0
  7  6  1  0
  6  8  1  0
  8  9  1  0
  9 10  1  0
  9 11  2  0
 10 12  1  0
 12 13  1  0
 13 14  2  0
 15 13  1  0
 14 16  1  0
 17 15  2  0
 16 18  2  0
 18 17  1  0
  4 19  2  0
  4 20  1  0
 21 20  1  0
 21 22  1  0
 22 23  1  0
 22 24  1  0
 23 25  1  0
 24 26  1  0
 24 27  1  0
 27 25  1  0
 25 28  1  0
 27 29  1  0
 30 28  1  0
 31 28  1  0
 32 30  2  0
 30 33  1  0
 34 31  2  0
 35 32  1  0
 33 36  2  0
 33 34  1  0
 37 35  2  0
 37 36  1  0
 36 38  1  0
  6 39  1  6
  7 40  1  0
  7 41  1  0
  8 42  1  0
  8 43  1  0
 12 44  1  0
 12 45  1  0
 14 46  1  0
 15 47  1  0
 16 48  1  0
 17 49  1  0
 18 50  1  0
 21 51  1  0
 21 52  1  0
 22 53  1  0
 24 54  1  0
 25 55  1  0
 26 56  1  0
 27 57  1  0
 29 58  1  0
 31 59  1  0
 35 60  1  0
 38 61  1  0
 38 62  1  0
M  CHG  1   5  -1
M  END
>  <EmbedRMS>  (85) 
0.08794164222140845

$$$$

     RDKit          3D

 62 65  0  0  0  0  0  0  0  0999 V2000
   10.2857   43.7731   33.8073 C   0  0  0  0  0  0  0  0  0  0  0  0
   11.4091   43.5891   34.3615 O   0  0  0  0  0  0  0  0  0  0  0  0
    9.3675   42.7316   33.7014 O   0  0  0  0  0  0  0  0  0  0  0  0
    9.8851   41.2342   34.2844 P   0  0  0  0  0  5  0  0  0  0  0  0
   10.3647   41.4668   35.8749 O   0  0  0  0  0  1  0  0  0  0  0  0
    9.9528   45.1146   33.2531 C   0  0  2  0  0  0  0  0  0  0  0  0
   11.0717   46.0333   33.4731 N   0  0  0  0  0  0  0  0  0  0  0  0
    8.6593   45.6686   33.8859 C   0  0  0  0  0  0  0  0  0  0  0  0
    8.8303   45.9893   35.3412 C   0  0  0  0  0  0  0  0  0  0  0  0
    8.8616   44.9505   36.2785 O   0  0  0  0  0  0  0  0  0  0  0  0
    8.9759   47.1887   35.7035 O   0  0  0  0  0  0  0  0  0  0  0  0
    9.1579   45.1518   37.6586 C   0  0  0  0  0  0  0  0  0  0  0  0
   10.6111   45.5004   37.8351 C   0  0  0  0  0  0  0  0  0  0  0  0
   11.5971   44.5240   37.6215 C   0  0  0  0  0  0  0  0  0  0  0  0
   10.9988   46.8093   38.1675 C   0  0  0  0  0  0  0  0  0  0  0  0
   12.9510   44.8505   37.7446 C   0  0  0  0  0  0  0  0  0  0  0  0
   12.3539   47.1319   38.2911 C   0  0  0  0  0  0  0  0  0  0  0  0
   13.3293   46.1534   38.0797 C   0  0  0  0  0  0  0  0  0  0  0  0
    8.8075   40.1915   34.2075 O   0  0  0  0  0  0  0  0  0  0  0  0
   11.2370   40.7908   33.3689 O   0  0  0  0  0  0  0  0  0  0  0  0
   10.9156   40.6899   31.9959 C   0  0  0  0  0  0  0  0  0  0  0  0
   11.5270   39.3899   31.4374 C   0  0  0  0  0  0  0  0  0  0  0  0
   12.7507   39.0917   32.0839 O   0  0  0  0  0  0  0  0  0  0  0  0
   10.6122   38.1916   31.6452 C   0  0  0  0  0  0  0  0  0  0  0  0
   12.9429   37.6853   32.0295 C   0  0  0  0  0  0  0  0  0  0  0  0
    9.6070   38.0859   30.6603 O   0  0  0  0  0  0  0  0  0  0  0  0
   11.5845   37.0186   31.6880 C   0  0  0  0  0  0  0  0  0  0  0  0
   13.4899   37.2164   33.3250 N   0  0  0  0  0  0  0  0  0  0  0  0
   11.6201   36.3063   30.4693 O   0  0  0  0  0  0  0  0  0  0  0  0
   14.4758   36.3263   33.5739 C   0  0  0  0  0  0  0  0  0  0  0  0
   13.1176   37.6308   34.5699 C   0  0  0  0  0  0  0  0  0  0  0  0
   15.2065   35.6139   32.6746 N   0  0  0  0  0  0  0  0  0  0  0  0
   14.6731   36.2267   34.9191 C   0  0  0  0  0  0  0  0  0  0  0  0
   13.8224   37.0451   35.5792 N   0  0  0  0  0  0  0  0  0  0  0  0
   16.1640   34.7596   33.1551 C   0  0  0  0  0  0  0  0  0  0  0  0
   15.6517   35.3489   35.4136 C   0  0  0  0  0  0  0  0  0  0  0  0
   16.3795   34.6310   34.5046 N   0  0  0  0  0  0  0  0  0  0  0  0
   15.9006   35.1931   36.8094 N   0  0  0  0  0  0  0  0  0  0  0  0
    9.7832   44.9996   32.1589 H   0  0  0  0  0  0  0  0  0  0  0  0
   11.8821   45.7119   32.8939 H   0  0  0  0  0  0  0  0  0  0  0  0
   10.8087   46.9710   33.0909 H   0  0  0  0  0  0  0  0  0  0  0  0
    7.8325   44.9348   33.7699 H   0  0  0  0  0  0  0  0  0  0  0  0
    8.3526   46.5874   33.3396 H   0  0  0  0  0  0  0  0  0  0  0  0
    8.9414   44.2118   38.2088 H   0  0  0  0  0  0  0  0  0  0  0  0
    8.4948   45.9397   38.0785 H   0  0  0  0  0  0  0  0  0  0  0  0
   11.3168   43.5129   37.3578 H   0  0  0  0  0  0  0  0  0  0  0  0
   10.2547   47.5799   38.3262 H   0  0  0  0  0  0  0  0  0  0  0  0
   13.7067   44.0938   37.5781 H   0  0  0  0  0  0  0  0  0  0  0  0
   12.6481   48.1414   38.5474 H   0  0  0  0  0  0  0  0  0  0  0  0
   14.3777   46.4051   38.1738 H   0  0  0  0  0  0  0  0  0  0  0  0
   11.3826   41.5527   31.4744 H   0  0  0  0  0  0  0  0  0  0  0  0
    9.8255   40.7193   31.7586 H   0  0  0  0  0  0  0  0  0  0  0  0
   11.7319   39.5338   30.3520 H   0  0  0  0  0  0  0  0  0  0  0  0
   10.1215   38.2683   32.6413 H   0  0  0  0  0  0  0  0  0  0  0  0
   13.6882   37.4708   31.2319 H   0  0  0  0  0  0  0  0  0  0  0  0
   10.0257   38.1752   29.7656 H   0  0  0  0  0  0  0  0  0  0  0  0
   11.2795   36.3124   32.4916 H   0  0  0  0  0  0  0  0  0  0  0  0
   11.9872   36.9100   29.7715 H   0  0  0  0  0  0  0  0  0  0  0  0
   12.3366   38.3597   34.7454 H   0  0  0  0  0  0  0  0  0  0  0  0
   16.7576   34.1794   32.4622 H   0  0  0  0  0  0  0  0  0  0  0  0
   16.6368   34.5316   37.1418 H   0  0  0  0  0  0  0  0  0  0  0  0
   15.3532   35.7351   37.5143 H   0  0  0  0  0  0  0  0  0  0  0  0
  1  2  2  0
  1  3  1  0
  3  4  1  0
  4  5  1  0
  6  1  1  0
  7  6  1  0
  6  8  1  0
  8  9  1  0
  9 10  1  0
  9 11  2  0
 10 12  1  0
 12 13  1  0
 13 14  2  0
 15 13  1  0
 14 16  1  0
 17 15  2  0
 16 18  2  0
 18 17  1  0
  4 19  2  0
  4 20  1  0
 21 20  1  0
 21 22  1  0
 22 23  1  0
 22 24  1  0
 23 25  1  0
 24 26  1  0
 24 27  1  0
 27 25  1  0
 25 28  1  0
 27 29  1  0
 30 28  1  0
 31 28  1  0
 32 30  2  0
 30 33  1  0
 34 31  2  0
 35 32  1  0
 33 36  2  0
 33 34  1  0
 37 35  2  0
 37 36  1  0
 36 38  1  0
  6 39  1  6
  7 40  1  0
  7 41  1  0
  8 42  1  0
  8 43  1  0
 12 44  1  0
 12 45  1  0
 14 46  1  0
 15 47  1  0
 16 48  1  0
 17 49  1  0
 18 50  1  0
 21 51  1  0
 21 52  1  0
 22 53  1  0
 24 54  1  0
 25 55  1  0
 26 56  1  0
 27 57  1  0
 29 58  1  0
 31 59  1  0
 35 60  1  0
 38 61  1  0
 38 62  1  0
M  CHG  1   5  -1
M  END
>  <EmbedRMS>  (86) 
0.08726203766424377

$$$$

     RDKit          3D

 62 65  0  0  0  0  0  0  0  0999 V2000
   10.2820   43.7751   33.8090 C   0  0  0  0  0  0  0  0  0  0  0  0
   11.4049   43.5916   34.3650 O   0  0  0  0  0  0  0  0  0  0  0  0
    9.3698   42.7290   33.6968 O   0  0  0  0  0  0  0  0  0  0  0  0
    9.8868   41.2334   34.2839 P   0  0  0  0  0  5  0  0  0  0  0  0
   10.3655   41.4701   35.8747 O   0  0  0  0  0  1  0  0  0  0  0  0
    9.9471   45.1207   33.2573 C   0  0  2  0  0  0  0  0  0  0  0  0
   11.0785   46.0251   33.4698 N   0  0  0  0  0  0  0  0  0  0  0  0
    8.6908   45.6995   33.9415 C   0  0  0  0  0  0  0  0  0  0  0  0
    7.4511   44.9364   33.5847 C   0  0  0  0  0  0  0  0  0  0  0  0
    7.0062   44.9277   32.2579 O   0  0  0  0  0  0  0  0  0  0  0  0
    6.8294   44.2983   34.4777 O   0  0  0  0  0  0  0  0  0  0  0  0
    5.8452   44.2214   31.8267 C   0  0  0  0  0  0  0  0  0  0  0  0
    4.5998   44.9058   32.3203 C   0  0  0  0  0  0  0  0  0  0  0  0
    3.7856   44.2995   33.2916 C   0  0  0  0  0  0  0  0  0  0  0  0
    4.2560   46.1751   31.8276 C   0  0  0  0  0  0  0  0  0  0  0  0
    2.6397   44.9528   33.7563 C   0  0  0  0  0  0  0  0  0  0  0  0
    3.1092   46.8249   32.2948 C   0  0  0  0  0  0  0  0  0  0  0  0
    2.3014   46.2140   33.2579 C   0  0  0  0  0  0  0  0  0  0  0  0
    8.8088   40.1910   34.2075 O   0  0  0  0  0  0  0  0  0  0  0  0
   11.2392   40.7897   33.3694 O   0  0  0  0  0  0  0  0  0  0  0  0
   10.9195   40.6904   31.9960 C   0  0  0  0  0  0  0  0  0  0  0  0
   11.5177   39.3822   31.4409 C   0  0  0  0  0  0  0  0  0  0  0  0
   12.7497   39.0891   32.0752 O   0  0  0  0  0  0  0  0  0  0  0  0
   10.6037   38.1900   31.6659 C   0  0  0  0  0  0  0  0  0  0  0  0
   12.9401   37.6832   32.0275 C   0  0  0  0  0  0  0  0  0  0  0  0
    9.6376   38.0786   30.6474 O   0  0  0  0  0  0  0  0  0  0  0  0
   11.5803   37.0203   31.6936 C   0  0  0  0  0  0  0  0  0  0  0  0
   13.4902   37.2176   33.3237 N   0  0  0  0  0  0  0  0  0  0  0  0
   11.6116   36.3192   30.4680 O   0  0  0  0  0  0  0  0  0  0  0  0
   14.4759   36.3271   33.5731 C   0  0  0  0  0  0  0  0  0  0  0  0
   13.1175   37.6317   34.5687 C   0  0  0  0  0  0  0  0  0  0  0  0
   15.2064   35.6141   32.6742 N   0  0  0  0  0  0  0  0  0  0  0  0
   14.6729   36.2274   34.9184 C   0  0  0  0  0  0  0  0  0  0  0  0
   13.8221   37.0458   35.5783 N   0  0  0  0  0  0  0  0  0  0  0  0
   16.1637   34.7597   33.1549 C   0  0  0  0  0  0  0  0  0  0  0  0
   15.6514   35.3493   35.4133 C   0  0  0  0  0  0  0  0  0  0  0  0
   16.3791   34.6312   34.5044 N   0  0  0  0  0  0  0  0  0  0  0  0
   15.9001   35.1935   36.8091 N   0  0  0  0  0  0  0  0  0  0  0  0
    9.7619   45.0214   32.1635 H   0  0  0  0  0  0  0  0  0  0  0  0
   10.8353   46.9619   33.0724 H   0  0  0  0  0  0  0  0  0  0  0  0
   11.8857   45.6851   32.8966 H   0  0  0  0  0  0  0  0  0  0  0  0
    8.8310   45.7099   35.0454 H   0  0  0  0  0  0  0  0  0  0  0  0
    8.5405   46.7511   33.6152 H   0  0  0  0  0  0  0  0  0  0  0  0
    5.8311   44.2064   30.7165 H   0  0  0  0  0  0  0  0  0  0  0  0
    5.8962   43.1645   32.1696 H   0  0  0  0  0  0  0  0  0  0  0  0
    4.0376   43.3248   33.6905 H   0  0  0  0  0  0  0  0  0  0  0  0
    4.8769   46.6600   31.0843 H   0  0  0  0  0  0  0  0  0  0  0  0
    2.0148   44.4819   34.5041 H   0  0  0  0  0  0  0  0  0  0  0  0
    2.8478   47.8027   31.9113 H   0  0  0  0  0  0  0  0  0  0  0  0
    1.4145   46.7185   33.6191 H   0  0  0  0  0  0  0  0  0  0  0  0
    9.8316   40.7399   31.7558 H   0  0  0  0  0  0  0  0  0  0  0  0
   11.4007   41.5453   31.4746 H   0  0  0  0  0  0  0  0  0  0  0  0
   11.6990   39.5090   30.3486 H   0  0  0  0  0  0  0  0  0  0  0  0
   10.1132   38.2591   32.6663 H   0  0  0  0  0  0  0  0  0  0  0  0
   13.6800   37.4623   31.2265 H   0  0  0  0  0  0  0  0  0  0  0  0
    8.8955   38.6914   30.8889 H   0  0  0  0  0  0  0  0  0  0  0  0
   11.2829   36.3060   32.4929 H   0  0  0  0  0  0  0  0  0  0  0  0
   11.8858   36.9588   29.7592 H   0  0  0  0  0  0  0  0  0  0  0  0
   12.3360   38.3600   34.7441 H   0  0  0  0  0  0  0  0  0  0  0  0
   16.7572   34.1793   32.4621 H   0  0  0  0  0  0  0  0  0  0  0  0
   16.6362   34.5318   37.1416 H   0  0  0  0  0  0  0  0  0  0  0  0
   15.3528   35.7357   37.5140 H   0  0  0  0  0  0  0  0  0  0  0  0
  1  2  2  0
  1  3  1  0
  3  4  1  0
  4  5  1  0
  6  1  1  0
  7  6  1  0
  6  8  1  0
  8  9  1  0
  9 10  1  0
  9 11  2  0
 10 12  1  0
 12 13  1  0
 13 14  2  0
 15 13  1  0
 14 16  1  0
 17 15  2  0
 16 18  2  0
 18 17  1  0
  4 19  2  0
  4 20  1  0
 21 20  1  0
 21 22  1  0
 22 23  1  0
 22 24  1  0
 23 25  1  0
 24 26  1  0
 24 27  1  0
 27 25  1  0
 25 28  1  0
 27 29  1  0
 30 28  1  0
 31 28  1  0
 32 30  2  0
 30 33  1  0
 34 31  2  0
 35 32  1  0
 33 36  2  0
 33 34  1  0
 37 35  2  0
 37 36  1  0
 36 38  1  0
  6 39  1  6
  7 40  1  0
  7 41  1  0
  8 42  1  0
  8 43  1  0
 12 44  1  0
 12 45  1  0
 14 46  1  0
 15 47  1  0
 16 48  1  0
 17 49  1  0
 18 50  1  0
 21 51  1  0
 21 52  1  0
 22 53  1  0
 24 54  1  0
 25 55  1  0
 26 56  1  0
 27 57  1  0
 29 58  1  0
 31 59  1  0
 35 60  1  0
 38 61  1  0
 38 62  1  0
M  CHG  1   5  -1
M  END
>  <EmbedRMS>  (87) 
0.08863830557589614

$$$$

     RDKit          3D

 62 65  0  0  0  0  0  0  0  0999 V2000
   10.2846   43.7720   33.8067 C   0  0  0  0  0  0  0  0  0  0  0  0
   11.4078   43.5874   34.3615 O   0  0  0  0  0  0  0  0  0  0  0  0
    9.3653   42.7313   33.7010 O   0  0  0  0  0  0  0  0  0  0  0  0
    9.8851   41.2341   34.2837 P   0  0  0  0  0  5  0  0  0  0  0  0
   10.3640   41.4691   35.8747 O   0  0  0  0  0  1  0  0  0  0  0  0
    9.9534   45.1156   33.2565 C   0  0  2  0  0  0  0  0  0  0  0  0
   11.0743   46.0327   33.4705 N   0  0  0  0  0  0  0  0  0  0  0  0
    8.6586   45.6694   33.8928 C   0  0  0  0  0  0  0  0  0  0  0  0
    8.7105   45.7862   35.4033 C   0  0  0  0  0  0  0  0  0  0  0  0
    7.5674   45.6625   36.2064 O   0  0  0  0  0  0  0  0  0  0  0  0
    9.7971   46.0849   35.9659 O   0  0  0  0  0  0  0  0  0  0  0  0
    6.2645   45.3214   35.7348 C   0  0  0  0  0  0  0  0  0  0  0  0
    6.1660   43.8463   35.4493 C   0  0  0  0  0  0  0  0  0  0  0  0
    5.5926   43.3892   34.2507 C   0  0  0  0  0  0  0  0  0  0  0  0
    6.5934   42.9114   36.4072 C   0  0  0  0  0  0  0  0  0  0  0  0
    5.4670   42.0180   34.0079 C   0  0  0  0  0  0  0  0  0  0  0  0
    6.4631   41.5413   36.1617 C   0  0  0  0  0  0  0  0  0  0  0  0
    5.8986   41.0950   34.9638 C   0  0  0  0  0  0  0  0  0  0  0  0
    8.8116   40.1879   34.2058 O   0  0  0  0  0  0  0  0  0  0  0  0
   11.2376   40.7924   33.3677 O   0  0  0  0  0  0  0  0  0  0  0  0
   10.9151   40.6887   31.9949 C   0  0  0  0  0  0  0  0  0  0  0  0
   11.5259   39.3873   31.4368 C   0  0  0  0  0  0  0  0  0  0  0  0
   12.7489   39.0895   32.0823 O   0  0  0  0  0  0  0  0  0  0  0  0
   10.6121   38.1895   31.6463 C   0  0  0  0  0  0  0  0  0  0  0  0
   12.9372   37.6829   32.0302 C   0  0  0  0  0  0  0  0  0  0  0  0
    9.6149   38.0841   30.6540 O   0  0  0  0  0  0  0  0  0  0  0  0
   11.5792   37.0138   31.7015 C   0  0  0  0  0  0  0  0  0  0  0  0
   13.4906   37.2170   33.3243 N   0  0  0  0  0  0  0  0  0  0  0  0
   11.6215   36.3254   30.4726 O   0  0  0  0  0  0  0  0  0  0  0  0
   14.4763   36.3267   33.5731 C   0  0  0  0  0  0  0  0  0  0  0  0
   13.1181   37.6308   34.5695 C   0  0  0  0  0  0  0  0  0  0  0  0
   15.2065   35.6137   32.6740 N   0  0  0  0  0  0  0  0  0  0  0  0
   14.6735   36.2270   34.9185 C   0  0  0  0  0  0  0  0  0  0  0  0
   13.8228   37.0451   35.5788 N   0  0  0  0  0  0  0  0  0  0  0  0
   16.1639   34.7593   33.1547 C   0  0  0  0  0  0  0  0  0  0  0  0
   15.6518   35.3489   35.4132 C   0  0  0  0  0  0  0  0  0  0  0  0
   16.3794   34.6308   34.5042 N   0  0  0  0  0  0  0  0  0  0  0  0
   15.9006   35.1931   36.8090 N   0  0  0  0  0  0  0  0  0  0  0  0
    9.7813   45.0047   32.1619 H   0  0  0  0  0  0  0  0  0  0  0  0
   10.8146   46.9689   33.0828 H   0  0  0  0  0  0  0  0  0  0  0  0
   11.8837   45.7059   32.8929 H   0  0  0  0  0  0  0  0  0  0  0  0
    7.8256   45.0076   33.5850 H   0  0  0  0  0  0  0  0  0  0  0  0
    8.4403   46.6738   33.4715 H   0  0  0  0  0  0  0  0  0  0  0  0
    6.0067   45.9377   34.8460 H   0  0  0  0  0  0  0  0  0  0  0  0
    5.5290   45.5692   36.5284 H   0  0  0  0  0  0  0  0  0  0  0  0
    5.2436   44.0923   33.5047 H   0  0  0  0  0  0  0  0  0  0  0  0
    7.0238   43.2437   37.3438 H   0  0  0  0  0  0  0  0  0  0  0  0
    5.0299   41.6709   33.0806 H   0  0  0  0  0  0  0  0  0  0  0  0
    6.7984   40.8252   36.9007 H   0  0  0  0  0  0  0  0  0  0  0  0
    5.7985   40.0340   34.7752 H   0  0  0  0  0  0  0  0  0  0  0  0
    9.8248   40.7183   31.7583 H   0  0  0  0  0  0  0  0  0  0  0  0
   11.3818   41.5506   31.4716 H   0  0  0  0  0  0  0  0  0  0  0  0
   11.7290   39.5288   30.3507 H   0  0  0  0  0  0  0  0  0  0  0  0
   10.1137   38.2720   32.6381 H   0  0  0  0  0  0  0  0  0  0  0  0
   13.6724   37.4640   31.2241 H   0  0  0  0  0  0  0  0  0  0  0  0
   10.0535   38.1089   29.7640 H   0  0  0  0  0  0  0  0  0  0  0  0
   11.2645   36.3136   32.5108 H   0  0  0  0  0  0  0  0  0  0  0  0
   12.1549   35.5034   30.6316 H   0  0  0  0  0  0  0  0  0  0  0  0
   12.3361   38.3586   34.7451 H   0  0  0  0  0  0  0  0  0  0  0  0
   16.7573   34.1789   32.4619 H   0  0  0  0  0  0  0  0  0  0  0  0
   16.6366   34.5314   37.1415 H   0  0  0  0  0  0  0  0  0  0  0  0
   15.3533   35.7353   37.5139 H   0  0  0  0  0  0  0  0  0  0  0  0
  1  2  2  0
  1  3  1  0
  3  4  1  0
  4  5  1  0
  6  1  1  0
  7  6  1  0
  6  8  1  0
  8  9  1  0
  9 10  1  0
  9 11  2  0
 10 12  1  0
 12 13  1  0
 13 14  2  0
 15 13  1  0
 14 16  1  0
 17 15  2  0
 16 18  2  0
 18 17  1  0
  4 19  2  0
  4 20  1  0
 21 20  1  0
 21 22  1  0
 22 23  1  0
 22 24  1  0
 23 25  1  0
 24 26  1  0
 24 27  1  0
 27 25  1  0
 25 28  1  0
 27 29  1  0
 30 28  1  0
 31 28  1  0
 32 30  2  0
 30 33  1  0
 34 31  2  0
 35 32  1  0
 33 36  2  0
 33 34  1  0
 37 35  2  0
 37 36  1  0
 36 38  1  0
  6 39  1  6
  7 40  1  0
  7 41  1  0
  8 42  1  0
  8 43  1  0
 12 44  1  0
 12 45  1  0
 14 46  1  0
 15 47  1  0
 16 48  1  0
 17 49  1  0
 18 50  1  0
 21 51  1  0
 21 52  1  0
 22 53  1  0
 24 54  1  0
 25 55  1  0
 26 56  1  0
 27 57  1  0
 29 58  1  0
 31 59  1  0
 35 60  1  0
 38 61  1  0
 38 62  1  0
M  CHG  1   5  -1
M  END
>  <EmbedRMS>  (88) 
0.08778438211464348

$$$$

     RDKit          3D

 62 65  0  0  0  0  0  0  0  0999 V2000
   10.2862   43.7718   33.8055 C   0  0  0  0  0  0  0  0  0  0  0  0
   11.4083   43.5876   34.3625 O   0  0  0  0  0  0  0  0  0  0  0  0
    9.3679   42.7306   33.6987 O   0  0  0  0  0  0  0  0  0  0  0  0
    9.8857   41.2337   34.2834 P   0  0  0  0  0  5  0  0  0  0  0  0
   10.3654   41.4696   35.8741 O   0  0  0  0  0  1  0  0  0  0  0  0
    9.9531   45.1156   33.2554 C   0  0  2  0  0  0  0  0  0  0  0  0
   11.0712   46.0345   33.4735 N   0  0  0  0  0  0  0  0  0  0  0  0
    8.6586   45.6717   33.8878 C   0  0  0  0  0  0  0  0  0  0  0  0
    8.7818   45.8922   35.3790 C   0  0  0  0  0  0  0  0  0  0  0  0
    8.9408   47.1607   35.9537 O   0  0  0  0  0  0  0  0  0  0  0  0
    8.7540   44.8912   36.1427 O   0  0  0  0  0  0  0  0  0  0  0  0
    8.8715   48.3897   35.2379 C   0  0  0  0  0  0  0  0  0  0  0  0
    9.0958   49.5266   36.1910 C   0  0  0  0  0  0  0  0  0  0  0  0
    8.0112   50.1099   36.8668 C   0  0  0  0  0  0  0  0  0  0  0  0
   10.3993   49.9719   36.4664 C   0  0  0  0  0  0  0  0  0  0  0  0
    8.2269   51.1445   37.7828 C   0  0  0  0  0  0  0  0  0  0  0  0
   10.6107   51.0067   37.3831 C   0  0  0  0  0  0  0  0  0  0  0  0
    9.5252   51.5942   38.0389 C   0  0  0  0  0  0  0  0  0  0  0  0
    8.8080   40.1909   34.2075 O   0  0  0  0  0  0  0  0  0  0  0  0
   11.2383   40.7897   33.3684 O   0  0  0  0  0  0  0  0  0  0  0  0
   10.9190   40.6887   31.9947 C   0  0  0  0  0  0  0  0  0  0  0  0
   11.5181   39.3799   31.4397 C   0  0  0  0  0  0  0  0  0  0  0  0
   12.7485   39.0875   32.0749 O   0  0  0  0  0  0  0  0  0  0  0  0
   10.6054   38.1874   31.6656 C   0  0  0  0  0  0  0  0  0  0  0  0
   12.9361   37.6815   32.0288 C   0  0  0  0  0  0  0  0  0  0  0  0
    9.6423   38.0737   30.6445 O   0  0  0  0  0  0  0  0  0  0  0  0
   11.5765   37.0158   31.7046 C   0  0  0  0  0  0  0  0  0  0  0  0
   13.4908   37.2182   33.3237 N   0  0  0  0  0  0  0  0  0  0  0  0
   11.6102   36.3399   30.4680 O   0  0  0  0  0  0  0  0  0  0  0  0
   14.4762   36.3273   33.5728 C   0  0  0  0  0  0  0  0  0  0  0  0
   13.1181   37.6318   34.5689 C   0  0  0  0  0  0  0  0  0  0  0  0
   15.2063   35.6140   32.6739 N   0  0  0  0  0  0  0  0  0  0  0  0
   14.6733   36.2275   34.9182 C   0  0  0  0  0  0  0  0  0  0  0  0
   13.8226   37.0457   35.5783 N   0  0  0  0  0  0  0  0  0  0  0  0
   16.1636   34.7595   33.1546 C   0  0  0  0  0  0  0  0  0  0  0  0
   15.6515   35.3492   35.4130 C   0  0  0  0  0  0  0  0  0  0  0  0
   16.3791   34.6310   34.5041 N   0  0  0  0  0  0  0  0  0  0  0  0
   15.9002   35.1934   36.8089 N   0  0  0  0  0  0  0  0  0  0  0  0
    9.7838   45.0017   32.1608 H   0  0  0  0  0  0  0  0  0  0  0  0
   10.8342   46.9467   33.0208 H   0  0  0  0  0  0  0  0  0  0  0  0
   11.9013   45.6788   32.9441 H   0  0  0  0  0  0  0  0  0  0  0  0
    7.8243   44.9603   33.7026 H   0  0  0  0  0  0  0  0  0  0  0  0
    8.3753   46.6090   33.3680 H   0  0  0  0  0  0  0  0  0  0  0  0
    9.6450   48.4122   34.4423 H   0  0  0  0  0  0  0  0  0  0  0  0
    7.8734   48.4892   34.7581 H   0  0  0  0  0  0  0  0  0  0  0  0
    7.0010   49.7641   36.6849 H   0  0  0  0  0  0  0  0  0  0  0  0
   11.2498   49.5183   35.9723 H   0  0  0  0  0  0  0  0  0  0  0  0
    7.3877   51.5949   38.2970 H   0  0  0  0  0  0  0  0  0  0  0  0
   11.6163   51.3505   37.5879 H   0  0  0  0  0  0  0  0  0  0  0  0
    9.6905   52.3940   38.7492 H   0  0  0  0  0  0  0  0  0  0  0  0
    9.8310   40.7374   31.7548 H   0  0  0  0  0  0  0  0  0  0  0  0
   11.3996   41.5434   31.4725 H   0  0  0  0  0  0  0  0  0  0  0  0
   11.7003   39.5044   30.3472 H   0  0  0  0  0  0  0  0  0  0  0  0
   10.1105   38.2619   32.6636 H   0  0  0  0  0  0  0  0  0  0  0  0
   13.6696   37.4585   31.2222 H   0  0  0  0  0  0  0  0  0  0  0  0
    8.9000   38.6882   30.8814 H   0  0  0  0  0  0  0  0  0  0  0  0
   11.2690   36.3069   32.5091 H   0  0  0  0  0  0  0  0  0  0  0  0
   12.1426   35.5150   30.6153 H   0  0  0  0  0  0  0  0  0  0  0  0
   12.3359   38.3593   34.7445 H   0  0  0  0  0  0  0  0  0  0  0  0
   16.7569   34.1789   32.4618 H   0  0  0  0  0  0  0  0  0  0  0  0
   15.3530   35.7356   37.5138 H   0  0  0  0  0  0  0  0  0  0  0  0
   16.6362   34.5315   37.1414 H   0  0  0  0  0  0  0  0  0  0  0  0
  1  2  2  0
  1  3  1  0
  3  4  1  0
  4  5  1  0
  6  1  1  0
  7  6  1  0
  6  8  1  0
  8  9  1  0
  9 10  1  0
  9 11  2  0
 10 12  1  0
 12 13  1  0
 13 14  2  0
 15 13  1  0
 14 16  1  0
 17 15  2  0
 16 18  2  0
 18 17  1  0
  4 19  2  0
  4 20  1  0
 21 20  1  0
 21 22  1  0
 22 23  1  0
 22 24  1  0
 23 25  1  0
 24 26  1  0
 24 27  1  0
 27 25  1  0
 25 28  1  0
 27 29  1  0
 30 28  1  0
 31 28  1  0
 32 30  2  0
 30 33  1  0
 34 31  2  0
 35 32  1  0
 33 36  2  0
 33 34  1  0
 37 35  2  0
 37 36  1  0
 36 38  1  0
  6 39  1  6
  7 40  1  0
  7 41  1  0
  8 42  1  0
  8 43  1  0
 12 44  1  0
 12 45  1  0
 14 46  1  0
 15 47  1  0
 16 48  1  0
 17 49  1  0
 18 50  1  0
 21 51  1  0
 21 52  1  0
 22 53  1  0
 24 54  1  0
 25 55  1  0
 26 56  1  0
 27 57  1  0
 29 58  1  0
 31 59  1  0
 35 60  1  0
 38 61  1  0
 38 62  1  0
M  CHG  1   5  -1
M  END
>  <EmbedRMS>  (89) 
0.08946064632290775

$$$$

     RDKit          3D

 62 65  0  0  0  0  0  0  0  0999 V2000
   10.2800   43.7765   33.8117 C   0  0  0  0  0  0  0  0  0  0  0  0
   11.4064   43.5922   34.3605 O   0  0  0  0  0  0  0  0  0  0  0  0
    9.3682   42.7299   33.7018 O   0  0  0  0  0  0  0  0  0  0  0  0
    9.8870   41.2332   34.2830 P   0  0  0  0  0  5  0  0  0  0  0  0
   10.3676   41.4680   35.8736 O   0  0  0  0  0  1  0  0  0  0  0  0
    9.9533   45.1158   33.2429 C   0  0  2  0  0  0  0  0  0  0  0  0
   11.0752   46.0258   33.4807 N   0  0  0  0  0  0  0  0  0  0  0  0
    8.6515   45.6978   33.8436 C   0  0  0  0  0  0  0  0  0  0  0  0
    7.4251   44.9128   33.4752 C   0  0  0  0  0  0  0  0  0  0  0  0
    7.3584   44.2537   32.2439 O   0  0  0  0  0  0  0  0  0  0  0  0
    6.4456   44.8848   34.2691 O   0  0  0  0  0  0  0  0  0  0  0  0
    6.2475   43.4549   31.8553 C   0  0  0  0  0  0  0  0  0  0  0  0
    6.5784   42.7501   30.5735 C   0  0  0  0  0  0  0  0  0  0  0  0
    7.1368   41.4613   30.5970 C   0  0  0  0  0  0  0  0  0  0  0  0
    6.4060   43.4045   29.3429 C   0  0  0  0  0  0  0  0  0  0  0  0
    7.4922   40.8270   29.4026 C   0  0  0  0  0  0  0  0  0  0  0  0
    6.7627   42.7663   28.1507 C   0  0  0  0  0  0  0  0  0  0  0  0
    7.3038   41.4779   28.1804 C   0  0  0  0  0  0  0  0  0  0  0  0
    8.8086   40.1913   34.2071 O   0  0  0  0  0  0  0  0  0  0  0  0
   11.2382   40.7910   33.3652 O   0  0  0  0  0  0  0  0  0  0  0  0
   10.9146   40.6852   31.9925 C   0  0  0  0  0  0  0  0  0  0  0  0
   11.5164   39.3774   31.4389 C   0  0  0  0  0  0  0  0  0  0  0  0
   12.7472   39.0855   32.0734 O   0  0  0  0  0  0  0  0  0  0  0  0
   10.6046   38.1869   31.6672 C   0  0  0  0  0  0  0  0  0  0  0  0
   12.9344   37.6791   32.0281 C   0  0  0  0  0  0  0  0  0  0  0  0
    9.6384   38.0908   30.6490 O   0  0  0  0  0  0  0  0  0  0  0  0
   11.5759   37.0131   31.7059 C   0  0  0  0  0  0  0  0  0  0  0  0
   13.4910   37.2179   33.3233 N   0  0  0  0  0  0  0  0  0  0  0  0
   11.6230   36.3371   30.4687 O   0  0  0  0  0  0  0  0  0  0  0  0
   14.4765   36.3273   33.5727 C   0  0  0  0  0  0  0  0  0  0  0  0
   13.1182   37.6317   34.5685 C   0  0  0  0  0  0  0  0  0  0  0  0
   15.2066   35.6138   32.6739 N   0  0  0  0  0  0  0  0  0  0  0  0
   14.6735   36.2276   34.9181 C   0  0  0  0  0  0  0  0  0  0  0  0
   13.8227   37.0458   35.5781 N   0  0  0  0  0  0  0  0  0  0  0  0
   16.1637   34.7593   33.1547 C   0  0  0  0  0  0  0  0  0  0  0  0
   15.6516   35.3493   35.4131 C   0  0  0  0  0  0  0  0  0  0  0  0
   16.3792   34.6309   34.5042 N   0  0  0  0  0  0  0  0  0  0  0  0
   15.9002   35.1934   36.8089 N   0  0  0  0  0  0  0  0  0  0  0  0
    9.8319   44.9982   32.1432 H   0  0  0  0  0  0  0  0  0  0  0  0
   10.9087   46.9089   32.9450 H   0  0  0  0  0  0  0  0  0  0  0  0
   11.1123   46.2815   34.4953 H   0  0  0  0  0  0  0  0  0  0  0  0
    8.7413   45.7436   34.9516 H   0  0  0  0  0  0  0  0  0  0  0  0
    8.5102   46.7356   33.4731 H   0  0  0  0  0  0  0  0  0  0  0  0
    6.0204   42.7117   32.6514 H   0  0  0  0  0  0  0  0  0  0  0  0
    5.3521   44.1000   31.7202 H   0  0  0  0  0  0  0  0  0  0  0  0
    7.2972   40.9493   31.5378 H   0  0  0  0  0  0  0  0  0  0  0  0
    5.9993   44.4077   29.3077 H   0  0  0  0  0  0  0  0  0  0  0  0
    7.9160   39.8321   29.4240 H   0  0  0  0  0  0  0  0  0  0  0  0
    6.6241   43.2725   27.2041 H   0  0  0  0  0  0  0  0  0  0  0  0
    7.5810   40.9860   27.2571 H   0  0  0  0  0  0  0  0  0  0  0  0
   11.3862   41.5419   31.4655 H   0  0  0  0  0  0  0  0  0  0  0  0
    9.8255   40.7206   31.7568 H   0  0  0  0  0  0  0  0  0  0  0  0
   11.6979   39.5012   30.3462 H   0  0  0  0  0  0  0  0  0  0  0  0
   10.1095   38.2779   32.6632 H   0  0  0  0  0  0  0  0  0  0  0  0
   13.6669   37.4543   31.2211 H   0  0  0  0  0  0  0  0  0  0  0  0
    8.9712   37.4247   30.9591 H   0  0  0  0  0  0  0  0  0  0  0  0
   11.2859   36.3044   32.5180 H   0  0  0  0  0  0  0  0  0  0  0  0
   10.8670   35.6937   30.4652 H   0  0  0  0  0  0  0  0  0  0  0  0
   12.3355   38.3588   34.7439 H   0  0  0  0  0  0  0  0  0  0  0  0
   16.7571   34.1786   32.4620 H   0  0  0  0  0  0  0  0  0  0  0  0
   15.3530   35.7358   37.5138 H   0  0  0  0  0  0  0  0  0  0  0  0
   16.6360   34.5315   37.1415 H   0  0  0  0  0  0  0  0  0  0  0  0
  1  2  2  0
  1  3  1  0
  3  4  1  0
  4  5  1  0
  6  1  1  0
  7  6  1  0
  6  8  1  0
  8  9  1  0
  9 10  1  0
  9 11  2  0
 10 12  1  0
 12 13  1  0
 13 14  2  0
 15 13  1  0
 14 16  1  0
 17 15  2  0
 16 18  2  0
 18 17  1  0
  4 19  2  0
  4 20  1  0
 21 20  1  0
 21 22  1  0
 22 23  1  0
 22 24  1  0
 23 25  1  0
 24 26  1  0
 24 27  1  0
 27 25  1  0
 25 28  1  0
 27 29  1  0
 30 28  1  0
 31 28  1  0
 32 30  2  0
 30 33  1  0
 34 31  2  0
 35 32  1  0
 33 36  2  0
 33 34  1  0
 37 35  2  0
 37 36  1  0
 36 38  1  0
  6 39  1  6
  7 40  1  0
  7 41  1  0
  8 42  1  0
  8 43  1  0
 12 44  1  0
 12 45  1  0
 14 46  1  0
 15 47  1  0
 16 48  1  0
 17 49  1  0
 18 50  1  0
 21 51  1  0
 21 52  1  0
 22 53  1  0
 24 54  1  0
 25 55  1  0
 26 56  1  0
 27 57  1  0
 29 58  1  0
 31 59  1  0
 35 60  1  0
 38 61  1  0
 38 62  1  0
M  CHG  1   5  -1
M  END
>  <EmbedRMS>  (90) 
0.08909518976601226

$$$$

     RDKit          3D

 62 65  0  0  0  0  0  0  0  0999 V2000
   10.2814   43.7732   33.8032 C   0  0  0  0  0  0  0  0  0  0  0  0
   11.4023   43.5893   34.3638 O   0  0  0  0  0  0  0  0  0  0  0  0
    9.3648   42.7299   33.6982 O   0  0  0  0  0  0  0  0  0  0  0  0
    9.8864   41.2345   34.2851 P   0  0  0  0  0  5  0  0  0  0  0  0
   10.3683   41.4728   35.8746 O   0  0  0  0  0  1  0  0  0  0  0  0
    9.9623   45.1123   33.2286 C   0  0  2  0  0  0  0  0  0  0  0  0
   11.0703   46.0315   33.4962 N   0  0  0  0  0  0  0  0  0  0  0  0
    8.6529   45.6694   33.8305 C   0  0  0  0  0  0  0  0  0  0  0  0
    7.4503   45.1332   33.1150 C   0  0  0  0  0  0  0  0  0  0  0  0
    6.7029   44.0959   33.6845 O   0  0  0  0  0  0  0  0  0  0  0  0
    7.1298   45.6188   31.9960 O   0  0  0  0  0  0  0  0  0  0  0  0
    5.6082   43.4654   33.0210 C   0  0  0  0  0  0  0  0  0  0  0  0
    6.1121   42.4460   32.0355 C   0  0  0  0  0  0  0  0  0  0  0  0
    6.3454   42.7992   30.6957 C   0  0  0  0  0  0  0  0  0  0  0  0
    6.4009   41.1396   32.4612 C   0  0  0  0  0  0  0  0  0  0  0  0
    6.8583   41.8577   29.7978 C   0  0  0  0  0  0  0  0  0  0  0  0
    6.9088   40.1993   31.5591 C   0  0  0  0  0  0  0  0  0  0  0  0
    7.1403   40.5590   30.2291 C   0  0  0  0  0  0  0  0  0  0  0  0
    8.8148   40.1861   34.2155 O   0  0  0  0  0  0  0  0  0  0  0  0
   11.2378   40.7919   33.3686 O   0  0  0  0  0  0  0  0  0  0  0  0
   10.9151   40.6906   31.9959 C   0  0  0  0  0  0  0  0  0  0  0  0
   11.5261   39.3904   31.4373 C   0  0  0  0  0  0  0  0  0  0  0  0
   12.7500   39.0920   32.0838 O   0  0  0  0  0  0  0  0  0  0  0  0
   10.6111   38.1922   31.6450 C   0  0  0  0  0  0  0  0  0  0  0  0
   12.9422   37.6856   32.0295 C   0  0  0  0  0  0  0  0  0  0  0  0
    9.6067   38.0850   30.6597 O   0  0  0  0  0  0  0  0  0  0  0  0
   11.5836   37.0192   31.6882 C   0  0  0  0  0  0  0  0  0  0  0  0
   13.4896   37.2165   33.3249 N   0  0  0  0  0  0  0  0  0  0  0  0
   11.6194   36.3067   30.4696 O   0  0  0  0  0  0  0  0  0  0  0  0
   14.4757   36.3265   33.5737 C   0  0  0  0  0  0  0  0  0  0  0  0
   13.1173   37.6308   34.5699 C   0  0  0  0  0  0  0  0  0  0  0  0
   15.2063   35.6140   32.6745 N   0  0  0  0  0  0  0  0  0  0  0  0
   14.6730   36.2269   34.9189 C   0  0  0  0  0  0  0  0  0  0  0  0
   13.8223   37.0451   35.5791 N   0  0  0  0  0  0  0  0  0  0  0  0
   16.1639   34.7597   33.1550 C   0  0  0  0  0  0  0  0  0  0  0  0
   15.6516   35.3490   35.4135 C   0  0  0  0  0  0  0  0  0  0  0  0
   16.3794   34.6311   34.5044 N   0  0  0  0  0  0  0  0  0  0  0  0
   15.9005   35.1931   36.8093 N   0  0  0  0  0  0  0  0  0  0  0  0
    9.8537   45.0023   32.1248 H   0  0  0  0  0  0  0  0  0  0  0  0
   10.8440   46.9588   33.0680 H   0  0  0  0  0  0  0  0  0  0  0  0
   11.9151   45.6932   32.9788 H   0  0  0  0  0  0  0  0  0  0  0  0
    8.5863   45.4329   34.9154 H   0  0  0  0  0  0  0  0  0  0  0  0
    8.6301   46.7773   33.7402 H   0  0  0  0  0  0  0  0  0  0  0  0
    4.9663   44.2233   32.5203 H   0  0  0  0  0  0  0  0  0  0  0  0
    4.9758   42.9628   33.7834 H   0  0  0  0  0  0  0  0  0  0  0  0
    6.1290   43.7998   30.3447 H   0  0  0  0  0  0  0  0  0  0  0  0
    6.2341   40.8506   33.4913 H   0  0  0  0  0  0  0  0  0  0  0  0
    7.0374   42.1354   28.7671 H   0  0  0  0  0  0  0  0  0  0  0  0
    7.1309   39.1942   31.8937 H   0  0  0  0  0  0  0  0  0  0  0  0
    7.5385   39.8322   29.5332 H   0  0  0  0  0  0  0  0  0  0  0  0
    9.8256   40.7210   31.7596 H   0  0  0  0  0  0  0  0  0  0  0  0
   11.3814   41.5533   31.4737 H   0  0  0  0  0  0  0  0  0  0  0  0
   11.7309   39.5347   30.3520 H   0  0  0  0  0  0  0  0  0  0  0  0
   10.1193   38.2694   32.6405 H   0  0  0  0  0  0  0  0  0  0  0  0
   13.6872   37.4711   31.2316 H   0  0  0  0  0  0  0  0  0  0  0  0
   10.0240   38.1825   29.7652 H   0  0  0  0  0  0  0  0  0  0  0  0
   11.2785   36.3132   32.4919 H   0  0  0  0  0  0  0  0  0  0  0  0
   11.9841   36.9112   29.7712 H   0  0  0  0  0  0  0  0  0  0  0  0
   12.3363   38.3596   34.7454 H   0  0  0  0  0  0  0  0  0  0  0  0
   16.7575   34.1796   32.4621 H   0  0  0  0  0  0  0  0  0  0  0  0
   16.6367   34.5316   37.1417 H   0  0  0  0  0  0  0  0  0  0  0  0
   15.3531   35.7352   37.5142 H   0  0  0  0  0  0  0  0  0  0  0  0
  1  2  2  0
  1  3  1  0
  3  4  1  0
  4  5  1  0
  6  1  1  0
  7  6  1  0
  6  8  1  0
  8  9  1  0
  9 10  1  0
  9 11  2  0
 10 12  1  0
 12 13  1  0
 13 14  2  0
 15 13  1  0
 14 16  1  0
 17 15  2  0
 16 18  2  0
 18 17  1  0
  4 19  2  0
  4 20  1  0
 21 20  1  0
 21 22  1  0
 22 23  1  0
 22 24  1  0
 23 25  1  0
 24 26  1  0
 24 27  1  0
 27 25  1  0
 25 28  1  0
 27 29  1  0
 30 28  1  0
 31 28  1  0
 32 30  2  0
 30 33  1  0
 34 31  2  0
 35 32  1  0
 33 36  2  0
 33 34  1  0
 37 35  2  0
 37 36  1  0
 36 38  1  0
  6 39  1  6
  7 40  1  0
  7 41  1  0
  8 42  1  0
  8 43  1  0
 12 44  1  0
 12 45  1  0
 14 46  1  0
 15 47  1  0
 16 48  1  0
 17 49  1  0
 18 50  1  0
 21 51  1  0
 21 52  1  0
 22 53  1  0
 24 54  1  0
 25 55  1  0
 26 56  1  0
 27 57  1  0
 29 58  1  0
 31 59  1  0
 35 60  1  0
 38 61  1  0
 38 62  1  0
M  CHG  1   5  -1
M  END
>  <EmbedRMS>  (91) 
0.08620290451499449

$$$$

     RDKit          3D

 62 65  0  0  0  0  0  0  0  0999 V2000
   10.2843   43.7743   33.8068 C   0  0  0  0  0  0  0  0  0  0  0  0
   11.4067   43.5903   34.3637 O   0  0  0  0  0  0  0  0  0  0  0  0
    9.3680   42.7310   33.6987 O   0  0  0  0  0  0  0  0  0  0  0  0
    9.8859   41.2341   34.2835 P   0  0  0  0  0  5  0  0  0  0  0  0
   10.3663   41.4697   35.8740 O   0  0  0  0  0  1  0  0  0  0  0  0
    9.9491   45.1165   33.2548 C   0  0  2  0  0  0  0  0  0  0  0  0
   11.0756   46.0280   33.4732 N   0  0  0  0  0  0  0  0  0  0  0  0
    8.6780   45.6536   33.9422 C   0  0  0  0  0  0  0  0  0  0  0  0
    8.1795   46.9029   33.2841 C   0  0  0  0  0  0  0  0  0  0  0  0
    8.5051   48.1463   33.8328 O   0  0  0  0  0  0  0  0  0  0  0  0
    7.5007   46.8247   32.2237 O   0  0  0  0  0  0  0  0  0  0  0  0
    8.1070   49.3762   33.2383 C   0  0  0  0  0  0  0  0  0  0  0  0
    8.6454   50.5149   34.0534 C   0  0  0  0  0  0  0  0  0  0  0  0
    7.8775   51.0722   35.0893 C   0  0  0  0  0  0  0  0  0  0  0  0
    9.9496   50.9870   33.8316 C   0  0  0  0  0  0  0  0  0  0  0  0
    8.3979   52.1078   35.8720 C   0  0  0  0  0  0  0  0  0  0  0  0
   10.4662   52.0226   34.6166 C   0  0  0  0  0  0  0  0  0  0  0  0
    9.6902   52.5844   35.6343 C   0  0  0  0  0  0  0  0  0  0  0  0
    8.8082   40.1914   34.2081 O   0  0  0  0  0  0  0  0  0  0  0  0
   11.2374   40.7899   33.3677 O   0  0  0  0  0  0  0  0  0  0  0  0
   10.9156   40.6881   31.9947 C   0  0  0  0  0  0  0  0  0  0  0  0
   11.5262   39.3870   31.4363 C   0  0  0  0  0  0  0  0  0  0  0  0
   12.7492   39.0892   32.0818 O   0  0  0  0  0  0  0  0  0  0  0  0
   10.6123   38.1893   31.6461 C   0  0  0  0  0  0  0  0  0  0  0  0
   12.9374   37.6826   32.0301 C   0  0  0  0  0  0  0  0  0  0  0  0
    9.6150   38.0838   30.6538 O   0  0  0  0  0  0  0  0  0  0  0  0
   11.5793   37.0136   31.7014 C   0  0  0  0  0  0  0  0  0  0  0  0
   13.4906   37.2169   33.3242 N   0  0  0  0  0  0  0  0  0  0  0  0
   11.6216   36.3252   30.4725 O   0  0  0  0  0  0  0  0  0  0  0  0
   14.4763   36.3266   33.5731 C   0  0  0  0  0  0  0  0  0  0  0  0
   13.1181   37.6308   34.5694 C   0  0  0  0  0  0  0  0  0  0  0  0
   15.2066   35.6137   32.6740 N   0  0  0  0  0  0  0  0  0  0  0  0
   14.6736   36.2270   34.9185 C   0  0  0  0  0  0  0  0  0  0  0  0
   13.8229   37.0451   35.5787 N   0  0  0  0  0  0  0  0  0  0  0  0
   16.1639   34.7593   33.1547 C   0  0  0  0  0  0  0  0  0  0  0  0
   15.6519   35.3489   35.4132 C   0  0  0  0  0  0  0  0  0  0  0  0
   16.3795   34.6308   34.5042 N   0  0  0  0  0  0  0  0  0  0  0  0
   15.9006   35.1931   36.8090 N   0  0  0  0  0  0  0  0  0  0  0  0
    9.7634   45.0050   32.1622 H   0  0  0  0  0  0  0  0  0  0  0  0
   10.8475   46.9546   33.0462 H   0  0  0  0  0  0  0  0  0  0  0  0
   11.8963   45.6757   32.9272 H   0  0  0  0  0  0  0  0  0  0  0  0
    7.8677   44.8929   33.8967 H   0  0  0  0  0  0  0  0  0  0  0  0
    8.8866   45.8592   35.0151 H   0  0  0  0  0  0  0  0  0  0  0  0
    6.9971   49.4270   33.1894 H   0  0  0  0  0  0  0  0  0  0  0  0
    8.4997   49.4351   32.1994 H   0  0  0  0  0  0  0  0  0  0  0  0
    6.8786   50.7053   35.2906 H   0  0  0  0  0  0  0  0  0  0  0  0
   10.5648   50.5529   33.0530 H   0  0  0  0  0  0  0  0  0  0  0  0
    7.8007   52.5382   36.6655 H   0  0  0  0  0  0  0  0  0  0  0  0
   11.4698   52.3870   34.4386 H   0  0  0  0  0  0  0  0  0  0  0  0
   10.0919   53.3848   36.2420 H   0  0  0  0  0  0  0  0  0  0  0  0
   11.3830   41.5502   31.4724 H   0  0  0  0  0  0  0  0  0  0  0  0
    9.8255   40.7180   31.7578 H   0  0  0  0  0  0  0  0  0  0  0  0
   11.7292   39.5285   30.3502 H   0  0  0  0  0  0  0  0  0  0  0  0
   10.1140   38.2719   32.6379 H   0  0  0  0  0  0  0  0  0  0  0  0
   13.6726   37.4635   31.2240 H   0  0  0  0  0  0  0  0  0  0  0  0
   10.0535   38.1084   29.7638 H   0  0  0  0  0  0  0  0  0  0  0  0
   11.2645   36.3134   32.5107 H   0  0  0  0  0  0  0  0  0  0  0  0
   12.1549   35.5031   30.6315 H   0  0  0  0  0  0  0  0  0  0  0  0
   12.3362   38.3586   34.7450 H   0  0  0  0  0  0  0  0  0  0  0  0
   16.7574   34.1788   32.4619 H   0  0  0  0  0  0  0  0  0  0  0  0
   15.3533   35.7353   37.5139 H   0  0  0  0  0  0  0  0  0  0  0  0
   16.6366   34.5314   37.1415 H   0  0  0  0  0  0  0  0  0  0  0  0
  1  2  2  0
  1  3  1  0
  3  4  1  0
  4  5  1  0
  6  1  1  0
  7  6  1  0
  6  8  1  0
  8  9  1  0
  9 10  1  0
  9 11  2  0
 10 12  1  0
 12 13  1  0
 13 14  2  0
 15 13  1  0
 14 16  1  0
 17 15  2  0
 16 18  2  0
 18 17  1  0
  4 19  2  0
  4 20  1  0
 21 20  1  0
 21 22  1  0
 22 23  1  0
 22 24  1  0
 23 25  1  0
 24 26  1  0
 24 27  1  0
 27 25  1  0
 25 28  1  0
 27 29  1  0
 30 28  1  0
 31 28  1  0
 32 30  2  0
 30 33  1  0
 34 31  2  0
 35 32  1  0
 33 36  2  0
 33 34  1  0
 37 35  2  0
 37 36  1  0
 36 38  1  0
  6 39  1  6
  7 40  1  0
  7 41  1  0
  8 42  1  0
  8 43  1  0
 12 44  1  0
 12 45  1  0
 14 46  1  0
 15 47  1  0
 16 48  1  0
 17 49  1  0
 18 50  1  0
 21 51  1  0
 21 52  1  0
 22 53  1  0
 24 54  1  0
 25 55  1  0
 26 56  1  0
 27 57  1  0
 29 58  1  0
 31 59  1  0
 35 60  1  0
 38 61  1  0
 38 62  1  0
M  CHG  1   5  -1
M  END
>  <EmbedRMS>  (92) 
0.08800984734504327

$$$$

     RDKit          3D

 62 65  0  0  0  0  0  0  0  0999 V2000
   10.2871   43.7713   33.8023 C   0  0  0  0  0  0  0  0  0  0  0  0
   11.4094   43.5878   34.3593 O   0  0  0  0  0  0  0  0  0  0  0  0
    9.3678   42.7307   33.6983 O   0  0  0  0  0  0  0  0  0  0  0  0
    9.8849   41.2345   34.2847 P   0  0  0  0  0  5  0  0  0  0  0  0
   10.3649   41.4713   35.8752 O   0  0  0  0  0  1  0  0  0  0  0  0
    9.9520   45.1156   33.2556 C   0  0  2  0  0  0  0  0  0  0  0  0
   11.0707   46.0335   33.4777 N   0  0  0  0  0  0  0  0  0  0  0  0
    8.6623   45.6650   33.8989 C   0  0  0  0  0  0  0  0  0  0  0  0
    8.7964   45.8398   35.3827 C   0  0  0  0  0  0  0  0  0  0  0  0
    8.5623   44.7474   36.2256 O   0  0  0  0  0  0  0  0  0  0  0  0
    9.1589   46.9525   35.8530 O   0  0  0  0  0  0  0  0  0  0  0  0
    8.6780   44.8134   37.6447 C   0  0  0  0  0  0  0  0  0  0  0  0
    7.5326   45.5942   38.2283 C   0  0  0  0  0  0  0  0  0  0  0  0
    6.2288   45.0760   38.1676 C   0  0  0  0  0  0  0  0  0  0  0  0
    7.7472   46.8541   38.8117 C   0  0  0  0  0  0  0  0  0  0  0  0
    5.1563   45.8047   38.6912 C   0  0  0  0  0  0  0  0  0  0  0  0
    6.6719   47.5797   39.3341 C   0  0  0  0  0  0  0  0  0  0  0  0
    5.3777   47.0553   39.2747 C   0  0  0  0  0  0  0  0  0  0  0  0
    8.8074   40.1916   34.2092 O   0  0  0  0  0  0  0  0  0  0  0  0
   11.2367   40.7898   33.3695 O   0  0  0  0  0  0  0  0  0  0  0  0
   10.9156   40.6897   31.9963 C   0  0  0  0  0  0  0  0  0  0  0  0
   11.5270   39.3898   31.4375 C   0  0  0  0  0  0  0  0  0  0  0  0
   12.7508   39.0916   32.0838 O   0  0  0  0  0  0  0  0  0  0  0  0
   10.6122   38.1916   31.6452 C   0  0  0  0  0  0  0  0  0  0  0  0
   12.9429   37.6852   32.0295 C   0  0  0  0  0  0  0  0  0  0  0  0
    9.6070   38.0858   30.6603 O   0  0  0  0  0  0  0  0  0  0  0  0
   11.5845   37.0186   31.6879 C   0  0  0  0  0  0  0  0  0  0  0  0
   13.4899   37.2163   33.3250 N   0  0  0  0  0  0  0  0  0  0  0  0
   11.6201   36.3063   30.4693 O   0  0  0  0  0  0  0  0  0  0  0  0
   14.4759   36.3263   33.5739 C   0  0  0  0  0  0  0  0  0  0  0  0
   13.1175   37.6307   34.5699 C   0  0  0  0  0  0  0  0  0  0  0  0
   15.2065   35.6139   32.6746 N   0  0  0  0  0  0  0  0  0  0  0  0
   14.6731   36.2267   34.9191 C   0  0  0  0  0  0  0  0  0  0  0  0
   13.8224   37.0450   35.5792 N   0  0  0  0  0  0  0  0  0  0  0  0
   16.1640   34.7596   33.1551 C   0  0  0  0  0  0  0  0  0  0  0  0
   15.6517   35.3489   35.4136 C   0  0  0  0  0  0  0  0  0  0  0  0
   16.3795   34.6310   34.5046 N   0  0  0  0  0  0  0  0  0  0  0  0
   15.9006   35.1931   36.8094 N   0  0  0  0  0  0  0  0  0  0  0  0
    9.7778   45.0094   32.1612 H   0  0  0  0  0  0  0  0  0  0  0  0
   11.8806   45.7138   32.8966 H   0  0  0  0  0  0  0  0  0  0  0  0
   10.8084   46.9725   33.0983 H   0  0  0  0  0  0  0  0  0  0  0  0
    7.8161   44.9747   33.6910 H   0  0  0  0  0  0  0  0  0  0  0  0
    8.4030   46.6410   33.4337 H   0  0  0  0  0  0  0  0  0  0  0  0
    9.6603   45.2532   37.9252 H   0  0  0  0  0  0  0  0  0  0  0  0
    8.6531   43.7799   38.0504 H   0  0  0  0  0  0  0  0  0  0  0  0
    6.0447   44.1100   37.7135 H   0  0  0  0  0  0  0  0  0  0  0  0
    8.7436   47.2755   38.8604 H   0  0  0  0  0  0  0  0  0  0  0  0
    4.1533   45.4006   38.6431 H   0  0  0  0  0  0  0  0  0  0  0  0
    6.8417   48.5496   39.7835 H   0  0  0  0  0  0  0  0  0  0  0  0
    4.5465   47.6185   39.6789 H   0  0  0  0  0  0  0  0  0  0  0  0
   11.3827   41.5526   31.4753 H   0  0  0  0  0  0  0  0  0  0  0  0
    9.8255   40.7191   31.7589 H   0  0  0  0  0  0  0  0  0  0  0  0
   11.7318   39.5340   30.3521 H   0  0  0  0  0  0  0  0  0  0  0  0
   10.1214   38.2681   32.6413 H   0  0  0  0  0  0  0  0  0  0  0  0
   13.6882   37.4707   31.2319 H   0  0  0  0  0  0  0  0  0  0  0  0
   10.0257   38.1752   29.7656 H   0  0  0  0  0  0  0  0  0  0  0  0
   11.2796   36.3123   32.4915 H   0  0  0  0  0  0  0  0  0  0  0  0
   11.9872   36.9099   29.7714 H   0  0  0  0  0  0  0  0  0  0  0  0
   12.3365   38.3595   34.7453 H   0  0  0  0  0  0  0  0  0  0  0  0
   16.7577   34.1794   32.4622 H   0  0  0  0  0  0  0  0  0  0  0  0
   15.3532   35.7351   37.5143 H   0  0  0  0  0  0  0  0  0  0  0  0
   16.6368   34.5316   37.1418 H   0  0  0  0  0  0  0  0  0  0  0  0
  1  2  2  0
  1  3  1  0
  3  4  1  0
  4  5  1  0
  6  1  1  0
  7  6  1  0
  6  8  1  0
  8  9  1  0
  9 10  1  0
  9 11  2  0
 10 12  1  0
 12 13  1  0
 13 14  2  0
 15 13  1  0
 14 16  1  0
 17 15  2  0
 16 18  2  0
 18 17  1  0
  4 19  2  0
  4 20  1  0
 21 20  1  0
 21 22  1  0
 22 23  1  0
 22 24  1  0
 23 25  1  0
 24 26  1  0
 24 27  1  0
 27 25  1  0
 25 28  1  0
 27 29  1  0
 30 28  1  0
 31 28  1  0
 32 30  2  0
 30 33  1  0
 34 31  2  0
 35 32  1  0
 33 36  2  0
 33 34  1  0
 37 35  2  0
 37 36  1  0
 36 38  1  0
  6 39  1  6
  7 40  1  0
  7 41  1  0
  8 42  1  0
  8 43  1  0
 12 44  1  0
 12 45  1  0
 14 46  1  0
 15 47  1  0
 16 48  1  0
 17 49  1  0
 18 50  1  0
 21 51  1  0
 21 52  1  0
 22 53  1  0
 24 54  1  0
 25 55  1  0
 26 56  1  0
 27 57  1  0
 29 58  1  0
 31 59  1  0
 35 60  1  0
 38 61  1  0
 38 62  1  0
M  CHG  1   5  -1
M  END
>  <EmbedRMS>  (93) 
0.08701776058010145

$$$$

     RDKit          3D

 62 65  0  0  0  0  0  0  0  0999 V2000
   10.2810   43.7752   33.8078 C   0  0  0  0  0  0  0  0  0  0  0  0
   11.4039   43.5912   34.3640 O   0  0  0  0  0  0  0  0  0  0  0  0
    9.3693   42.7289   33.6949 O   0  0  0  0  0  0  0  0  0  0  0  0
    9.8863   41.2338   34.2837 P   0  0  0  0  0  5  0  0  0  0  0  0
   10.3650   41.4712   35.8744 O   0  0  0  0  0  1  0  0  0  0  0  0
    9.9452   45.1235   33.2621 C   0  0  2  0  0  0  0  0  0  0  0  0
   11.0813   46.0235   33.4681 N   0  0  0  0  0  0  0  0  0  0  0  0
    8.6974   45.7036   33.9618 C   0  0  0  0  0  0  0  0  0  0  0  0
    7.4386   45.0120   33.5347 C   0  0  0  0  0  0  0  0  0  0  0  0
    6.8972   44.0069   34.3405 O   0  0  0  0  0  0  0  0  0  0  0  0
    6.8941   45.3225   32.4400 O   0  0  0  0  0  0  0  0  0  0  0  0
    5.7086   43.3033   33.9980 C   0  0  0  0  0  0  0  0  0  0  0  0
    5.4590   42.2301   35.0166 C   0  0  0  0  0  0  0  0  0  0  0  0
    5.6946   40.8804   34.7061 C   0  0  0  0  0  0  0  0  0  0  0  0
    5.0321   42.5753   36.3091 C   0  0  0  0  0  0  0  0  0  0  0  0
    5.4946   39.8905   35.6733 C   0  0  0  0  0  0  0  0  0  0  0  0
    4.8317   41.5822   37.2731 C   0  0  0  0  0  0  0  0  0  0  0  0
    5.0624   40.2408   36.9554 C   0  0  0  0  0  0  0  0  0  0  0  0
    8.8109   40.1892   34.2082 O   0  0  0  0  0  0  0  0  0  0  0  0
   11.2381   40.7901   33.3689 O   0  0  0  0  0  0  0  0  0  0  0  0
   10.9161   40.6896   31.9960 C   0  0  0  0  0  0  0  0  0  0  0  0
   11.5271   39.3897   31.4373 C   0  0  0  0  0  0  0  0  0  0  0  0
   12.7509   39.0914   32.0836 O   0  0  0  0  0  0  0  0  0  0  0  0
   10.6121   38.1916   31.6453 C   0  0  0  0  0  0  0  0  0  0  0  0
   12.9428   37.6851   32.0295 C   0  0  0  0  0  0  0  0  0  0  0  0
    9.6068   38.0859   30.6605 O   0  0  0  0  0  0  0  0  0  0  0  0
   11.5843   37.0186   31.6880 C   0  0  0  0  0  0  0  0  0  0  0  0
   13.4898   37.2163   33.3250 N   0  0  0  0  0  0  0  0  0  0  0  0
   11.6199   36.3062   30.4693 O   0  0  0  0  0  0  0  0  0  0  0  0
   14.4758   36.3263   33.5739 C   0  0  0  0  0  0  0  0  0  0  0  0
   13.1175   37.6307   34.5699 C   0  0  0  0  0  0  0  0  0  0  0  0
   15.2065   35.6139   32.6746 N   0  0  0  0  0  0  0  0  0  0  0  0
   14.6731   36.2267   34.9191 C   0  0  0  0  0  0  0  0  0  0  0  0
   13.8224   37.0450   35.5792 N   0  0  0  0  0  0  0  0  0  0  0  0
   16.1640   34.7596   33.1551 C   0  0  0  0  0  0  0  0  0  0  0  0
   15.6517   35.3489   35.4136 C   0  0  0  0  0  0  0  0  0  0  0  0
   16.3795   34.6310   34.5046 N   0  0  0  0  0  0  0  0  0  0  0  0
   15.9006   35.1931   36.8094 N   0  0  0  0  0  0  0  0  0  0  0  0
    9.7502   45.0291   32.1693 H   0  0  0  0  0  0  0  0  0  0  0  0
   11.8857   45.6774   32.8943 H   0  0  0  0  0  0  0  0  0  0  0  0
   10.8423   46.9594   33.0663 H   0  0  0  0  0  0  0  0  0  0  0  0
    8.8085   45.6303   35.0661 H   0  0  0  0  0  0  0  0  0  0  0  0
    8.5941   46.7824   33.7134 H   0  0  0  0  0  0  0  0  0  0  0  0
    4.8494   44.0085   33.9811 H   0  0  0  0  0  0  0  0  0  0  0  0
    5.8143   42.8619   32.9824 H   0  0  0  0  0  0  0  0  0  0  0  0
    6.0349   40.5941   33.7187 H   0  0  0  0  0  0  0  0  0  0  0  0
    4.8583   43.6123   36.5693 H   0  0  0  0  0  0  0  0  0  0  0  0
    5.6774   38.8519   35.4294 H   0  0  0  0  0  0  0  0  0  0  0  0
    4.5010   41.8529   38.2675 H   0  0  0  0  0  0  0  0  0  0  0  0
    4.9090   39.4735   37.7031 H   0  0  0  0  0  0  0  0  0  0  0  0
    9.8258   40.7191   31.7588 H   0  0  0  0  0  0  0  0  0  0  0  0
   11.3830   41.5524   31.4745 H   0  0  0  0  0  0  0  0  0  0  0  0
   11.7318   39.5336   30.3519 H   0  0  0  0  0  0  0  0  0  0  0  0
   10.1214   38.2684   32.6414 H   0  0  0  0  0  0  0  0  0  0  0  0
   13.6881   37.4704   31.2319 H   0  0  0  0  0  0  0  0  0  0  0  0
   10.0254   38.1752   29.7658 H   0  0  0  0  0  0  0  0  0  0  0  0
   11.2794   36.3123   32.4916 H   0  0  0  0  0  0  0  0  0  0  0  0
   11.9868   36.9099   29.7715 H   0  0  0  0  0  0  0  0  0  0  0  0
   12.3364   38.3595   34.7453 H   0  0  0  0  0  0  0  0  0  0  0  0
   16.7576   34.1794   32.4622 H   0  0  0  0  0  0  0  0  0  0  0  0
   16.6368   34.5316   37.1418 H   0  0  0  0  0  0  0  0  0  0  0  0
   15.3532   35.7351   37.5143 H   0  0  0  0  0  0  0  0  0  0  0  0
  1  2  2  0
  1  3  1  0
  3  4  1  0
  4  5  1  0
  6  1  1  0
  7  6  1  0
  6  8  1  0
  8  9  1  0
  9 10  1  0
  9 11  2  0
 10 12  1  0
 12 13  1  0
 13 14  2  0
 15 13  1  0
 14 16  1  0
 17 15  2  0
 16 18  2  0
 18 17  1  0
  4 19  2  0
  4 20  1  0
 21 20  1  0
 21 22  1  0
 22 23  1  0
 22 24  1  0
 23 25  1  0
 24 26  1  0
 24 27  1  0
 27 25  1  0
 25 28  1  0
 27 29  1  0
 30 28  1  0
 31 28  1  0
 32 30  2  0
 30 33  1  0
 34 31  2  0
 35 32  1  0
 33 36  2  0
 33 34  1  0
 37 35  2  0
 37 36  1  0
 36 38  1  0
  6 39  1  6
  7 40  1  0
  7 41  1  0
  8 42  1  0
  8 43  1  0
 12 44  1  0
 12 45  1  0
 14 46  1  0
 15 47  1  0
 16 48  1  0
 17 49  1  0
 18 50  1  0
 21 51  1  0
 21 52  1  0
 22 53  1  0
 24 54  1  0
 25 55  1  0
 26 56  1  0
 27 57  1  0
 29 58  1  0
 31 59  1  0
 35 60  1  0
 38 61  1  0
 38 62  1  0
M  CHG  1   5  -1
M  END
>  <EmbedRMS>  (94) 
0.08725939767532398

$$$$

     RDKit          3D

 62 65  0  0  0  0  0  0  0  0999 V2000
   10.2858   43.7730   33.8072 C   0  0  0  0  0  0  0  0  0  0  0  0
   11.4091   43.5891   34.3615 O   0  0  0  0  0  0  0  0  0  0  0  0
    9.3678   42.7314   33.7010 O   0  0  0  0  0  0  0  0  0  0  0  0
    9.8854   41.2339   34.2839 P   0  0  0  0  0  5  0  0  0  0  0  0
   10.3650   41.4667   35.8744 O   0  0  0  0  0  1  0  0  0  0  0  0
    9.9528   45.1145   33.2532 C   0  0  2  0  0  0  0  0  0  0  0  0
   11.0717   46.0333   33.4731 N   0  0  0  0  0  0  0  0  0  0  0  0
    8.6593   45.6684   33.8861 C   0  0  0  0  0  0  0  0  0  0  0  0
    8.8304   45.9892   35.3414 C   0  0  0  0  0  0  0  0  0  0  0  0
    8.8617   44.9503   36.2787 O   0  0  0  0  0  0  0  0  0  0  0  0
    8.9762   47.1885   35.7036 O   0  0  0  0  0  0  0  0  0  0  0  0
    9.1581   45.1516   37.6587 C   0  0  0  0  0  0  0  0  0  0  0  0
   10.6114   45.5000   37.8351 C   0  0  0  0  0  0  0  0  0  0  0  0
   10.9994   46.8089   38.1672 C   0  0  0  0  0  0  0  0  0  0  0  0
   11.5972   44.5233   37.6217 C   0  0  0  0  0  0  0  0  0  0  0  0
   12.3547   47.1311   38.2906 C   0  0  0  0  0  0  0  0  0  0  0  0
   12.9511   44.8494   37.7447 C   0  0  0  0  0  0  0  0  0  0  0  0
   13.3297   46.1523   38.0795 C   0  0  0  0  0  0  0  0  0  0  0  0
    8.8076   40.1915   34.2072 O   0  0  0  0  0  0  0  0  0  0  0  0
   11.2374   40.7901   33.3682 O   0  0  0  0  0  0  0  0  0  0  0  0
   10.9162   40.6890   31.9950 C   0  0  0  0  0  0  0  0  0  0  0  0
   11.5253   39.3873   31.4365 C   0  0  0  0  0  0  0  0  0  0  0  0
   12.7487   39.0879   32.0803 O   0  0  0  0  0  0  0  0  0  0  0  0
   10.6101   38.1910   31.6471 C   0  0  0  0  0  0  0  0  0  0  0  0
   12.9348   37.6808   32.0292 C   0  0  0  0  0  0  0  0  0  0  0  0
    9.6126   38.0875   30.6547 O   0  0  0  0  0  0  0  0  0  0  0  0
   11.5767   37.0134   31.7026 C   0  0  0  0  0  0  0  0  0  0  0  0
   13.4901   37.2165   33.3237 N   0  0  0  0  0  0  0  0  0  0  0  0
   11.6321   36.3231   30.4741 O   0  0  0  0  0  0  0  0  0  0  0  0
   14.4762   36.3266   33.5728 C   0  0  0  0  0  0  0  0  0  0  0  0
   13.1180   37.6308   34.5689 C   0  0  0  0  0  0  0  0  0  0  0  0
   15.2065   35.6135   32.6739 N   0  0  0  0  0  0  0  0  0  0  0  0
   14.6736   36.2272   34.9182 C   0  0  0  0  0  0  0  0  0  0  0  0
   13.8228   37.0453   35.5783 N   0  0  0  0  0  0  0  0  0  0  0  0
   16.1640   34.7593   33.1547 C   0  0  0  0  0  0  0  0  0  0  0  0
   15.6518   35.3491   35.4131 C   0  0  0  0  0  0  0  0  0  0  0  0
   16.3794   34.6309   34.5042 N   0  0  0  0  0  0  0  0  0  0  0  0
   15.9004   35.1933   36.8089 N   0  0  0  0  0  0  0  0  0  0  0  0
    9.7831   44.9996   32.1589 H   0  0  0  0  0  0  0  0  0  0  0  0
   10.8087   46.9710   33.0910 H   0  0  0  0  0  0  0  0  0  0  0  0
   11.8821   45.7119   32.8939 H   0  0  0  0  0  0  0  0  0  0  0  0
    8.3525   46.5873   33.3398 H   0  0  0  0  0  0  0  0  0  0  0  0
    7.8326   44.9346   33.7702 H   0  0  0  0  0  0  0  0  0  0  0  0
    8.4952   45.9397   38.0787 H   0  0  0  0  0  0  0  0  0  0  0  0
    8.9414   44.2117   38.2090 H   0  0  0  0  0  0  0  0  0  0  0  0
   10.2555   47.5797   38.3257 H   0  0  0  0  0  0  0  0  0  0  0  0
   11.3166   43.5122   37.3582 H   0  0  0  0  0  0  0  0  0  0  0  0
   12.6491   48.1407   38.5467 H   0  0  0  0  0  0  0  0  0  0  0  0
   13.7067   44.0925   37.5784 H   0  0  0  0  0  0  0  0  0  0  0  0
   14.3782   46.4039   38.1735 H   0  0  0  0  0  0  0  0  0  0  0  0
    9.8262   40.7207   31.7576 H   0  0  0  0  0  0  0  0  0  0  0  0
   11.3850   41.5506   31.4733 H   0  0  0  0  0  0  0  0  0  0  0  0
   11.7274   39.5286   30.3502 H   0  0  0  0  0  0  0  0  0  0  0  0
   10.1123   38.2733   32.6390 H   0  0  0  0  0  0  0  0  0  0  0  0
   13.6685   37.4591   31.2225 H   0  0  0  0  0  0  0  0  0  0  0  0
   10.0514   38.1110   29.7648 H   0  0  0  0  0  0  0  0  0  0  0  0
   11.2801   36.3129   32.5195 H   0  0  0  0  0  0  0  0  0  0  0  0
   10.8624   35.6961   30.4646 H   0  0  0  0  0  0  0  0  0  0  0  0
   12.3357   38.3582   34.7445 H   0  0  0  0  0  0  0  0  0  0  0  0
   16.7574   34.1787   32.4620 H   0  0  0  0  0  0  0  0  0  0  0  0
   16.6364   34.5315   37.1415 H   0  0  0  0  0  0  0  0  0  0  0  0
   15.3532   35.7356   37.5138 H   0  0  0  0  0  0  0  0  0  0  0  0
  1  2  2  0
  1  3  1  0
  3  4  1  0
  4  5  1  0
  6  1  1  0
  7  6  1  0
  6  8  1  0
  8  9  1  0
  9 10  1  0
  9 11  2  0
 10 12  1  0
 12 13  1  0
 13 14  2  0
 15 13  1  0
 14 16  1  0
 17 15  2  0
 16 18  2  0
 18 17  1  0
  4 19  2  0
  4 20  1  0
 21 20  1  0
 21 22  1  0
 22 23  1  0
 22 24  1  0
 23 25  1  0
 24 26  1  0
 24 27  1  0
 27 25  1  0
 25 28  1  0
 27 29  1  0
 30 28  1  0
 31 28  1  0
 32 30  2  0
 30 33  1  0
 34 31  2  0
 35 32  1  0
 33 36  2  0
 33 34  1  0
 37 35  2  0
 37 36  1  0
 36 38  1  0
  6 39  1  6
  7 40  1  0
  7 41  1  0
  8 42  1  0
  8 43  1  0
 12 44  1  0
 12 45  1  0
 14 46  1  0
 15 47  1  0
 16 48  1  0
 17 49  1  0
 18 50  1  0
 21 51  1  0
 21 52  1  0
 22 53  1  0
 24 54  1  0
 25 55  1  0
 26 56  1  0
 27 57  1  0
 29 58  1  0
 31 59  1  0
 35 60  1  0
 38 61  1  0
 38 62  1  0
M  CHG  1   5  -1
M  END
>  <EmbedRMS>  (95) 
0.08840859618847062

$$$$

     RDKit          3D

 62 65  0  0  0  0  0  0  0  0999 V2000
   10.2840   43.7719   33.8119 C   0  0  0  0  0  0  0  0  0  0  0  0
   11.4081   43.5830   34.3632 O   0  0  0  0  0  0  0  0  0  0  0  0
    9.3697   42.7284   33.6984 O   0  0  0  0  0  0  0  0  0  0  0  0
    9.8854   41.2322   34.2838 P   0  0  0  0  0  5  0  0  0  0  0  0
   10.3654   41.4684   35.8744 O   0  0  0  0  0  1  0  0  0  0  0  0
    9.9557   45.1189   33.2545 C   0  0  2  0  0  0  0  0  0  0  0  0
   11.0699   46.0447   33.4684 N   0  0  0  0  0  0  0  0  0  0  0  0
    8.6822   45.7046   33.8937 C   0  0  0  0  0  0  0  0  0  0  0  0
    7.4495   44.9588   33.4820 C   0  0  0  0  0  0  0  0  0  0  0  0
    6.8568   44.0621   34.3783 O   0  0  0  0  0  0  0  0  0  0  0  0
    6.9778   45.1205   32.3234 O   0  0  0  0  0  0  0  0  0  0  0  0
    5.7093   43.2788   34.0590 C   0  0  0  0  0  0  0  0  0  0  0  0
    4.4805   44.1445   34.0039 C   0  0  0  0  0  0  0  0  0  0  0  0
    3.8266   44.3842   32.7837 C   0  0  0  0  0  0  0  0  0  0  0  0
    3.9917   44.7425   35.1768 C   0  0  0  0  0  0  0  0  0  0  0  0
    2.6951   45.2051   32.7414 C   0  0  0  0  0  0  0  0  0  0  0  0
    2.8599   45.5625   35.1302 C   0  0  0  0  0  0  0  0  0  0  0  0
    2.2118   45.7932   33.9136 C   0  0  0  0  0  0  0  0  0  0  0  0
    8.8066   40.1907   34.2080 O   0  0  0  0  0  0  0  0  0  0  0  0
   11.2368   40.7890   33.3675 O   0  0  0  0  0  0  0  0  0  0  0  0
   10.9138   40.6857   31.9948 C   0  0  0  0  0  0  0  0  0  0  0  0
   11.5170   39.3796   31.4407 C   0  0  0  0  0  0  0  0  0  0  0  0
   12.7489   39.0885   32.0759 O   0  0  0  0  0  0  0  0  0  0  0  0
   10.6051   38.1876   31.6658 C   0  0  0  0  0  0  0  0  0  0  0  0
   12.9412   37.6827   32.0277 C   0  0  0  0  0  0  0  0  0  0  0  0
    9.6358   38.0930   30.6502 O   0  0  0  0  0  0  0  0  0  0  0  0
   11.5826   37.0178   31.6936 C   0  0  0  0  0  0  0  0  0  0  0  0
   13.4909   37.2176   33.3239 N   0  0  0  0  0  0  0  0  0  0  0  0
   11.6140   36.3179   30.4675 O   0  0  0  0  0  0  0  0  0  0  0  0
   14.4763   36.3270   33.5733 C   0  0  0  0  0  0  0  0  0  0  0  0
   13.1179   37.6316   34.5688 C   0  0  0  0  0  0  0  0  0  0  0  0
   15.2067   35.6140   32.6743 N   0  0  0  0  0  0  0  0  0  0  0  0
   14.6731   36.2273   34.9186 C   0  0  0  0  0  0  0  0  0  0  0  0
   13.8223   37.0456   35.5785 N   0  0  0  0  0  0  0  0  0  0  0  0
   16.1639   34.7595   33.1551 C   0  0  0  0  0  0  0  0  0  0  0  0
   15.6515   35.3491   35.4134 C   0  0  0  0  0  0  0  0  0  0  0  0
   16.3792   34.6310   34.5046 N   0  0  0  0  0  0  0  0  0  0  0  0
   15.9002   35.1933   36.8093 N   0  0  0  0  0  0  0  0  0  0  0  0
    9.7956   45.0147   32.1583 H   0  0  0  0  0  0  0  0  0  0  0  0
   11.2908   46.1157   34.4895 H   0  0  0  0  0  0  0  0  0  0  0  0
   11.9186   45.6913   32.9681 H   0  0  0  0  0  0  0  0  0  0  0  0
    8.5680   46.7652   33.5797 H   0  0  0  0  0  0  0  0  0  0  0  0
    8.7719   45.6933   35.0022 H   0  0  0  0  0  0  0  0  0  0  0  0
    5.5734   42.5109   34.8496 H   0  0  0  0  0  0  0  0  0  0  0  0
    5.8748   42.7384   33.1010 H   0  0  0  0  0  0  0  0  0  0  0  0
    4.1923   43.9392   31.8667 H   0  0  0  0  0  0  0  0  0  0  0  0
    4.4884   44.5743   36.1244 H   0  0  0  0  0  0  0  0  0  0  0  0
    2.1939   45.3866   31.7994 H   0  0  0  0  0  0  0  0  0  0  0  0
    2.4864   46.0204   36.0370 H   0  0  0  0  0  0  0  0  0  0  0  0
    1.3363   46.4287   33.8789 H   0  0  0  0  0  0  0  0  0  0  0  0
    9.8238   40.7212   31.7578 H   0  0  0  0  0  0  0  0  0  0  0  0
   11.3863   41.5432   31.4698 H   0  0  0  0  0  0  0  0  0  0  0  0
   11.6993   39.5065   30.3485 H   0  0  0  0  0  0  0  0  0  0  0  0
   10.1121   38.2722   32.6631 H   0  0  0  0  0  0  0  0  0  0  0  0
   13.6816   37.4629   31.2268 H   0  0  0  0  0  0  0  0  0  0  0  0
    9.0034   37.3830   30.9351 H   0  0  0  0  0  0  0  0  0  0  0  0
   11.2846   36.3040   32.4928 H   0  0  0  0  0  0  0  0  0  0  0  0
   11.8849   36.9589   29.7588 H   0  0  0  0  0  0  0  0  0  0  0  0
   12.3363   38.3599   34.7440 H   0  0  0  0  0  0  0  0  0  0  0  0
   16.7574   34.1790   32.4623 H   0  0  0  0  0  0  0  0  0  0  0  0
   15.3529   35.7356   37.5141 H   0  0  0  0  0  0  0  0  0  0  0  0
   16.6363   34.5317   37.1418 H   0  0  0  0  0  0  0  0  0  0  0  0
  1  2  2  0
  1  3  1  0
  3  4  1  0
  4  5  1  0
  6  1  1  0
  7  6  1  0
  6  8  1  0
  8  9  1  0
  9 10  1  0
  9 11  2  0
 10 12  1  0
 12 13  1  0
 13 14  2  0
 15 13  1  0
 14 16  1  0
 17 15  2  0
 16 18  2  0
 18 17  1  0
  4 19  2  0
  4 20  1  0
 21 20  1  0
 21 22  1  0
 22 23  1  0
 22 24  1  0
 23 25  1  0
 24 26  1  0
 24 27  1  0
 27 25  1  0
 25 28  1  0
 27 29  1  0
 30 28  1  0
 31 28  1  0
 32 30  2  0
 30 33  1  0
 34 31  2  0
 35 32  1  0
 33 36  2  0
 33 34  1  0
 37 35  2  0
 37 36  1  0
 36 38  1  0
  6 39  1  6
  7 40  1  0
  7 41  1  0
  8 42  1  0
  8 43  1  0
 12 44  1  0
 12 45  1  0
 14 46  1  0
 15 47  1  0
 16 48  1  0
 17 49  1  0
 18 50  1  0
 21 51  1  0
 21 52  1  0
 22 53  1  0
 24 54  1  0
 25 55  1  0
 26 56  1  0
 27 57  1  0
 29 58  1  0
 31 59  1  0
 35 60  1  0
 38 61  1  0
 38 62  1  0
M  CHG  1   5  -1
M  END
>  <EmbedRMS>  (96) 
0.08872286789776089

$$$$

     RDKit          3D

 62 65  0  0  0  0  0  0  0  0999 V2000
   10.2859   43.7721   33.8049 C   0  0  0  0  0  0  0  0  0  0  0  0
   11.4084   43.5886   34.3613 O   0  0  0  0  0  0  0  0  0  0  0  0
    9.3675   42.7309   33.6995 O   0  0  0  0  0  0  0  0  0  0  0  0
    9.8855   41.2341   34.2843 P   0  0  0  0  0  5  0  0  0  0  0  0
   10.3652   41.4701   35.8750 O   0  0  0  0  0  1  0  0  0  0  0  0
    9.9530   45.1146   33.2530 C   0  0  2  0  0  0  0  0  0  0  0  0
   11.0714   46.0332   33.4765 N   0  0  0  0  0  0  0  0  0  0  0  0
    8.6597   45.6656   33.8875 C   0  0  0  0  0  0  0  0  0  0  0  0
    8.7923   45.8652   35.3683 C   0  0  0  0  0  0  0  0  0  0  0  0
    9.4143   47.0189   35.8525 O   0  0  0  0  0  0  0  0  0  0  0  0
    8.3777   44.9760   36.1612 O   0  0  0  0  0  0  0  0  0  0  0  0
    9.6264   47.2530   37.2398 C   0  0  0  0  0  0  0  0  0  0  0  0
   10.3508   48.5551   37.4142 C   0  0  0  0  0  0  0  0  0  0  0  0
    9.6330   49.7474   37.6051 C   0  0  0  0  0  0  0  0  0  0  0  0
   11.7513   48.6016   37.3178 C   0  0  0  0  0  0  0  0  0  0  0  0
   10.3107   50.9646   37.7276 C   0  0  0  0  0  0  0  0  0  0  0  0
   12.4252   49.8208   37.4406 C   0  0  0  0  0  0  0  0  0  0  0  0
   11.7057   51.0011   37.6479 C   0  0  0  0  0  0  0  0  0  0  0  0
    8.8082   40.1911   34.2081 O   0  0  0  0  0  0  0  0  0  0  0  0
   11.2382   40.7905   33.3697 O   0  0  0  0  0  0  0  0  0  0  0  0
   10.9190   40.6905   31.9962 C   0  0  0  0  0  0  0  0  0  0  0  0
   11.5176   39.3824   31.4412 C   0  0  0  0  0  0  0  0  0  0  0  0
   12.7495   39.0892   32.0755 O   0  0  0  0  0  0  0  0  0  0  0  0
   10.6036   38.1899   31.6659 C   0  0  0  0  0  0  0  0  0  0  0  0
   12.9401   37.6833   32.0276 C   0  0  0  0  0  0  0  0  0  0  0  0
    9.6377   38.0785   30.6474 O   0  0  0  0  0  0  0  0  0  0  0  0
   11.5803   37.0203   31.6937 C   0  0  0  0  0  0  0  0  0  0  0  0
   13.4902   37.2177   33.3237 N   0  0  0  0  0  0  0  0  0  0  0  0
   11.6118   36.3193   30.4680 O   0  0  0  0  0  0  0  0  0  0  0  0
   14.4759   36.3271   33.5731 C   0  0  0  0  0  0  0  0  0  0  0  0
   13.1176   37.6317   34.5688 C   0  0  0  0  0  0  0  0  0  0  0  0
   15.2064   35.6141   32.6742 N   0  0  0  0  0  0  0  0  0  0  0  0
   14.6729   36.2274   34.9184 C   0  0  0  0  0  0  0  0  0  0  0  0
   13.8221   37.0457   35.5783 N   0  0  0  0  0  0  0  0  0  0  0  0
   16.1637   34.7597   33.1549 C   0  0  0  0  0  0  0  0  0  0  0  0
   15.6514   35.3493   35.4133 C   0  0  0  0  0  0  0  0  0  0  0  0
   16.3791   34.6312   34.5044 N   0  0  0  0  0  0  0  0  0  0  0  0
   15.9001   35.1935   36.8091 N   0  0  0  0  0  0  0  0  0  0  0  0
    9.7841   45.0047   32.1581 H   0  0  0  0  0  0  0  0  0  0  0  0
   11.8828   45.7128   32.8981 H   0  0  0  0  0  0  0  0  0  0  0  0
   10.8101   46.9719   33.0957 H   0  0  0  0  0  0  0  0  0  0  0  0
    7.8135   44.9749   33.6775 H   0  0  0  0  0  0  0  0  0  0  0  0
    8.4044   46.6395   33.4169 H   0  0  0  0  0  0  0  0  0  0  0  0
   10.2289   46.4240   37.6722 H   0  0  0  0  0  0  0  0  0  0  0  0
    8.6488   47.2798   37.7692 H   0  0  0  0  0  0  0  0  0  0  0  0
    8.5514   49.7346   37.6582 H   0  0  0  0  0  0  0  0  0  0  0  0
   12.3194   47.6954   37.1466 H   0  0  0  0  0  0  0  0  0  0  0  0
    9.7541   51.8803   37.8801 H   0  0  0  0  0  0  0  0  0  0  0  0
   13.5048   49.8512   37.3710 H   0  0  0  0  0  0  0  0  0  0  0  0
   12.2285   51.9441   37.7412 H   0  0  0  0  0  0  0  0  0  0  0  0
   11.4000   41.5454   31.4747 H   0  0  0  0  0  0  0  0  0  0  0  0
    9.8311   40.7397   31.7560 H   0  0  0  0  0  0  0  0  0  0  0  0
   11.6990   39.5091   30.3489 H   0  0  0  0  0  0  0  0  0  0  0  0
   10.1131   38.2589   32.6664 H   0  0  0  0  0  0  0  0  0  0  0  0
   13.6800   37.4627   31.2265 H   0  0  0  0  0  0  0  0  0  0  0  0
    8.8953   38.6909   30.8892 H   0  0  0  0  0  0  0  0  0  0  0  0
   11.2830   36.3060   32.4929 H   0  0  0  0  0  0  0  0  0  0  0  0
   11.8859   36.9589   29.7593 H   0  0  0  0  0  0  0  0  0  0  0  0
   12.3360   38.3600   34.7441 H   0  0  0  0  0  0  0  0  0  0  0  0
   16.7572   34.1793   32.4621 H   0  0  0  0  0  0  0  0  0  0  0  0
   15.3528   35.7356   37.5140 H   0  0  0  0  0  0  0  0  0  0  0  0
   16.6362   34.5318   37.1416 H   0  0  0  0  0  0  0  0  0  0  0  0
  1  2  2  0
  1  3  1  0
  3  4  1  0
  4  5  1  0
  6  1  1  0
  7  6  1  0
  6  8  1  0
  8  9  1  0
  9 10  1  0
  9 11  2  0
 10 12  1  0
 12 13  1  0
 13 14  2  0
 15 13  1  0
 14 16  1  0
 17 15  2  0
 16 18  2  0
 18 17  1  0
  4 19  2  0
  4 20  1  0
 21 20  1  0
 21 22  1  0
 22 23  1  0
 22 24  1  0
 23 25  1  0
 24 26  1  0
 24 27  1  0
 27 25  1  0
 25 28  1  0
 27 29  1  0
 30 28  1  0
 31 28  1  0
 32 30  2  0
 30 33  1  0
 34 31  2  0
 35 32  1  0
 33 36  2  0
 33 34  1  0
 37 35  2  0
 37 36  1  0
 36 38  1  0
  6 39  1  6
  7 40  1  0
  7 41  1  0
  8 42  1  0
  8 43  1  0
 12 44  1  0
 12 45  1  0
 14 46  1  0
 15 47  1  0
 16 48  1  0
 17 49  1  0
 18 50  1  0
 21 51  1  0
 21 52  1  0
 22 53  1  0
 24 54  1  0
 25 55  1  0
 26 56  1  0
 27 57  1  0
 29 58  1  0
 31 59  1  0
 35 60  1  0
 38 61  1  0
 38 62  1  0
M  CHG  1   5  -1
M  END
>  <EmbedRMS>  (97) 
0.08833228755892047

$$$$

     RDKit          3D

 62 65  0  0  0  0  0  0  0  0999 V2000
   10.2890   43.7681   33.8057 C   0  0  0  0  0  0  0  0  0  0  0  0
   11.4119   43.5793   34.3591 O   0  0  0  0  0  0  0  0  0  0  0  0
    9.3670   42.7302   33.7015 O   0  0  0  0  0  0  0  0  0  0  0  0
    9.8838   41.2328   34.2853 P   0  0  0  0  0  5  0  0  0  0  0  0
   10.3665   41.4673   35.8745 O   0  0  0  0  0  1  0  0  0  0  0  0
    9.9659   45.1110   33.2423 C   0  0  2  0  0  0  0  0  0  0  0  0
   11.0589   46.0562   33.4829 N   0  0  0  0  0  0  0  0  0  0  0  0
    8.6374   45.6657   33.7922 C   0  0  0  0  0  0  0  0  0  0  0  0
    8.6415   45.8151   35.2855 C   0  0  0  0  0  0  0  0  0  0  0  0
    8.5608   44.6737   36.0872 O   0  0  0  0  0  0  0  0  0  0  0  0
    8.7382   46.9610   35.8037 O   0  0  0  0  0  0  0  0  0  0  0  0
    8.5461   44.7238   37.5089 C   0  0  0  0  0  0  0  0  0  0  0  0
    8.5583   43.3234   38.0494 C   0  0  0  0  0  0  0  0  0  0  0  0
    9.6658   42.8399   38.7667 C   0  0  0  0  0  0  0  0  0  0  0  0
    7.4699   42.4698   37.8053 C   0  0  0  0  0  0  0  0  0  0  0  0
    9.6789   41.5228   39.2368 C   0  0  0  0  0  0  0  0  0  0  0  0
    7.4884   41.1528   38.2749 C   0  0  0  0  0  0  0  0  0  0  0  0
    8.5917   40.6798   38.9904 C   0  0  0  0  0  0  0  0  0  0  0  0
    8.8061   40.1904   34.2096 O   0  0  0  0  0  0  0  0  0  0  0  0
   11.2366   40.7893   33.3703 O   0  0  0  0  0  0  0  0  0  0  0  0
   10.9181   40.6902   31.9966 C   0  0  0  0  0  0  0  0  0  0  0  0
   11.5172   39.3824   31.4413 C   0  0  0  0  0  0  0  0  0  0  0  0
   12.7492   39.0894   32.0756 O   0  0  0  0  0  0  0  0  0  0  0  0
   10.6035   38.1898   31.6660 C   0  0  0  0  0  0  0  0  0  0  0  0
   12.9400   37.6835   32.0276 C   0  0  0  0  0  0  0  0  0  0  0  0
    9.6376   38.0784   30.6474 O   0  0  0  0  0  0  0  0  0  0  0  0
   11.5803   37.0204   31.6937 C   0  0  0  0  0  0  0  0  0  0  0  0
   13.4901   37.2178   33.3238 N   0  0  0  0  0  0  0  0  0  0  0  0
   11.6118   36.3193   30.4680 O   0  0  0  0  0  0  0  0  0  0  0  0
   14.4758   36.3272   33.5731 C   0  0  0  0  0  0  0  0  0  0  0  0
   13.1175   37.6318   34.5689 C   0  0  0  0  0  0  0  0  0  0  0  0
   15.2063   35.6142   32.6742 N   0  0  0  0  0  0  0  0  0  0  0  0
   14.6729   36.2275   34.9185 C   0  0  0  0  0  0  0  0  0  0  0  0
   13.8221   37.0458   35.5784 N   0  0  0  0  0  0  0  0  0  0  0  0
   16.1636   34.7597   33.1549 C   0  0  0  0  0  0  0  0  0  0  0  0
   15.6513   35.3493   35.4133 C   0  0  0  0  0  0  0  0  0  0  0  0
   16.3790   34.6312   34.5044 N   0  0  0  0  0  0  0  0  0  0  0  0
   15.9001   35.1935   36.8091 N   0  0  0  0  0  0  0  0  0  0  0  0
    9.8471   44.9911   32.1429 H   0  0  0  0  0  0  0  0  0  0  0  0
   11.9168   45.7267   32.9821 H   0  0  0  0  0  0  0  0  0  0  0  0
   11.2783   46.1086   34.5050 H   0  0  0  0  0  0  0  0  0  0  0  0
    8.4313   46.6510   33.3195 H   0  0  0  0  0  0  0  0  0  0  0  0
    7.8049   44.9873   33.5055 H   0  0  0  0  0  0  0  0  0  0  0  0
    7.6272   45.2453   37.8541 H   0  0  0  0  0  0  0  0  0  0  0  0
    9.4292   45.2946   37.8713 H   0  0  0  0  0  0  0  0  0  0  0  0
   10.5202   43.4774   38.9571 H   0  0  0  0  0  0  0  0  0  0  0  0
    6.6124   42.8231   37.2459 H   0  0  0  0  0  0  0  0  0  0  0  0
   10.5344   41.1540   39.7878 H   0  0  0  0  0  0  0  0  0  0  0  0
    6.6484   40.4982   38.0817 H   0  0  0  0  0  0  0  0  0  0  0  0
    8.6052   39.6597   39.3519 H   0  0  0  0  0  0  0  0  0  0  0  0
    9.8303   40.7394   31.7562 H   0  0  0  0  0  0  0  0  0  0  0  0
   11.3992   41.5456   31.4759 H   0  0  0  0  0  0  0  0  0  0  0  0
   11.6985   39.5094   30.3491 H   0  0  0  0  0  0  0  0  0  0  0  0
   10.1128   38.2587   32.6664 H   0  0  0  0  0  0  0  0  0  0  0  0
   13.6800   37.4629   31.2266 H   0  0  0  0  0  0  0  0  0  0  0  0
    8.8949   38.6903   30.8894 H   0  0  0  0  0  0  0  0  0  0  0  0
   11.2831   36.3060   32.4929 H   0  0  0  0  0  0  0  0  0  0  0  0
   11.8859   36.9590   29.7593 H   0  0  0  0  0  0  0  0  0  0  0  0
   12.3359   38.3601   34.7443 H   0  0  0  0  0  0  0  0  0  0  0  0
   16.7571   34.1793   32.4621 H   0  0  0  0  0  0  0  0  0  0  0  0
   16.6361   34.5318   37.1416 H   0  0  0  0  0  0  0  0  0  0  0  0
   15.3528   35.7357   37.5140 H   0  0  0  0  0  0  0  0  0  0  0  0
  1  2  2  0
  1  3  1  0
  3  4  1  0
  4  5  1  0
  6  1  1  0
  7  6  1  0
  6  8  1  0
  8  9  1  0
  9 10  1  0
  9 11  2  0
 10 12  1  0
 12 13  1  0
 13 14  2  0
 15 13  1  0
 14 16  1  0
 17 15  2  0
 16 18  2  0
 18 17  1  0
  4 19  2  0
  4 20  1  0
 21 20  1  0
 21 22  1  0
 22 23  1  0
 22 24  1  0
 23 25  1  0
 24 26  1  0
 24 27  1  0
 27 25  1  0
 25 28  1  0
 27 29  1  0
 30 28  1  0
 31 28  1  0
 32 30  2  0
 30 33  1  0
 34 31  2  0
 35 32  1  0
 33 36  2  0
 33 34  1  0
 37 35  2  0
 37 36  1  0
 36 38  1  0
  6 39  1  6
  7 40  1  0
  7 41  1  0
  8 42  1  0
  8 43  1  0
 12 44  1  0
 12 45  1  0
 14 46  1  0
 15 47  1  0
 16 48  1  0
 17 49  1  0
 18 50  1  0
 21 51  1  0
 21 52  1  0
 22 53  1  0
 24 54  1  0
 25 55  1  0
 26 56  1  0
 27 57  1  0
 29 58  1  0
 31 59  1  0
 35 60  1  0
 38 61  1  0
 38 62  1  0
M  CHG  1   5  -1
M  END
>  <EmbedRMS>  (98) 
0.08897076624459344

$$$$

     RDKit          3D

 62 65  0  0  0  0  0  0  0  0999 V2000
   10.2819   43.7752   33.8090 C   0  0  0  0  0  0  0  0  0  0  0  0
   11.4049   43.5916   34.3648 O   0  0  0  0  0  0  0  0  0  0  0  0
    9.3695   42.7292   33.6969 O   0  0  0  0  0  0  0  0  0  0  0  0
    9.8866   41.2336   34.2834 P   0  0  0  0  0  5  0  0  0  0  0  0
   10.3665   41.4700   35.8739 O   0  0  0  0  0  1  0  0  0  0  0  0
    9.9467   45.1211   33.2583 C   0  0  2  0  0  0  0  0  0  0  0  0
   11.0788   46.0249   33.4692 N   0  0  0  0  0  0  0  0  0  0  0  0
    8.6920   45.7003   33.9451 C   0  0  0  0  0  0  0  0  0  0  0  0
    7.4512   44.9381   33.5905 C   0  0  0  0  0  0  0  0  0  0  0  0
    6.9995   44.9362   32.2659 O   0  0  0  0  0  0  0  0  0  0  0  0
    6.8347   44.2944   34.4831 O   0  0  0  0  0  0  0  0  0  0  0  0
    5.8365   44.2319   31.8369 C   0  0  0  0  0  0  0  0  0  0  0  0
    4.5936   44.9123   32.3420 C   0  0  0  0  0  0  0  0  0  0  0  0
    4.2465   46.1848   31.8600 C   0  0  0  0  0  0  0  0  0  0  0  0
    3.7848   44.2988   33.3134 C   0  0  0  0  0  0  0  0  0  0  0  0
    3.1020   46.8308   32.3380 C   0  0  0  0  0  0  0  0  0  0  0  0
    2.6413   44.9484   33.7890 C   0  0  0  0  0  0  0  0  0  0  0  0
    2.2997   46.2129   33.3013 C   0  0  0  0  0  0  0  0  0  0  0  0
    8.8084   40.1913   34.2081 O   0  0  0  0  0  0  0  0  0  0  0  0
   11.2378   40.7901   33.3669 O   0  0  0  0  0  0  0  0  0  0  0  0
   10.9141   40.6859   31.9944 C   0  0  0  0  0  0  0  0  0  0  0  0
   11.5171   39.3796   31.4406 C   0  0  0  0  0  0  0  0  0  0  0  0
   12.7489   39.0884   32.0759 O   0  0  0  0  0  0  0  0  0  0  0  0
   10.6052   38.1877   31.6658 C   0  0  0  0  0  0  0  0  0  0  0  0
   12.9412   37.6827   32.0277 C   0  0  0  0  0  0  0  0  0  0  0  0
    9.6358   38.0931   30.6502 O   0  0  0  0  0  0  0  0  0  0  0  0
   11.5826   37.0179   31.6936 C   0  0  0  0  0  0  0  0  0  0  0  0
   13.4909   37.2176   33.3239 N   0  0  0  0  0  0  0  0  0  0  0  0
   11.6140   36.3179   30.4675 O   0  0  0  0  0  0  0  0  0  0  0  0
   14.4763   36.3269   33.5733 C   0  0  0  0  0  0  0  0  0  0  0  0
   13.1179   37.6316   34.5688 C   0  0  0  0  0  0  0  0  0  0  0  0
   15.2067   35.6140   32.6744 N   0  0  0  0  0  0  0  0  0  0  0  0
   14.6731   36.2273   34.9186 C   0  0  0  0  0  0  0  0  0  0  0  0
   13.8223   37.0456   35.5785 N   0  0  0  0  0  0  0  0  0  0  0  0
   16.1639   34.7595   33.1551 C   0  0  0  0  0  0  0  0  0  0  0  0
   15.6515   35.3491   35.4134 C   0  0  0  0  0  0  0  0  0  0  0  0
   16.3793   34.6310   34.5046 N   0  0  0  0  0  0  0  0  0  0  0  0
   15.9002   35.1933   36.8093 N   0  0  0  0  0  0  0  0  0  0  0  0
    9.7593   45.0223   32.1647 H   0  0  0  0  0  0  0  0  0  0  0  0
   10.8355   46.9618   33.0723 H   0  0  0  0  0  0  0  0  0  0  0  0
   11.8850   45.6846   32.8947 H   0  0  0  0  0  0  0  0  0  0  0  0
    8.5417   46.7521   33.6196 H   0  0  0  0  0  0  0  0  0  0  0  0
    8.8343   45.7102   35.0488 H   0  0  0  0  0  0  0  0  0  0  0  0
    5.8161   44.2238   30.7267 H   0  0  0  0  0  0  0  0  0  0  0  0
    5.8903   43.1729   32.1729 H   0  0  0  0  0  0  0  0  0  0  0  0
    4.8631   46.6751   31.1168 H   0  0  0  0  0  0  0  0  0  0  0  0
    4.0394   43.3214   33.7042 H   0  0  0  0  0  0  0  0  0  0  0  0
    2.8381   47.8112   31.9629 H   0  0  0  0  0  0  0  0  0  0  0  0
    2.0207   44.4720   34.5369 H   0  0  0  0  0  0  0  0  0  0  0  0
    1.4147   46.7144   33.6710 H   0  0  0  0  0  0  0  0  0  0  0  0
    9.8240   40.7212   31.7578 H   0  0  0  0  0  0  0  0  0  0  0  0
   11.3863   41.5432   31.4687 H   0  0  0  0  0  0  0  0  0  0  0  0
   11.6995   39.5063   30.3484 H   0  0  0  0  0  0  0  0  0  0  0  0
   10.1122   38.2724   32.6631 H   0  0  0  0  0  0  0  0  0  0  0  0
   13.6816   37.4629   31.2268 H   0  0  0  0  0  0  0  0  0  0  0  0
    9.0034   37.3831   30.9351 H   0  0  0  0  0  0  0  0  0  0  0  0
   11.2845   36.3040   32.4928 H   0  0  0  0  0  0  0  0  0  0  0  0
   11.8849   36.9589   29.7588 H   0  0  0  0  0  0  0  0  0  0  0  0
   12.3363   38.3599   34.7440 H   0  0  0  0  0  0  0  0  0  0  0  0
   16.7575   34.1790   32.4623 H   0  0  0  0  0  0  0  0  0  0  0  0
   15.3529   35.7356   37.5141 H   0  0  0  0  0  0  0  0  0  0  0  0
   16.6362   34.5317   37.1418 H   0  0  0  0  0  0  0  0  0  0  0  0
  1  2  2  0
  1  3  1  0
  3  4  1  0
  4  5  1  0
  6  1  1  0
  7  6  1  0
  6  8  1  0
  8  9  1  0
  9 10  1  0
  9 11  2  0
 10 12  1  0
 12 13  1  0
 13 14  2  0
 15 13  1  0
 14 16  1  0
 17 15  2  0
 16 18  2  0
 18 17  1  0
  4 19  2  0
  4 20  1  0
 21 20  1  0
 21 22  1  0
 22 23  1  0
 22 24  1  0
 23 25  1  0
 24 26  1  0
 24 27  1  0
 27 25  1  0
 25 28  1  0
 27 29  1  0
 30 28  1  0
 31 28  1  0
 32 30  2  0
 30 33  1  0
 34 31  2  0
 35 32  1  0
 33 36  2  0
 33 34  1  0
 37 35  2  0
 37 36  1  0
 36 38  1  0
  6 39  1  6
  7 40  1  0
  7 41  1  0
  8 42  1  0
  8 43  1  0
 12 44  1  0
 12 45  1  0
 14 46  1  0
 15 47  1  0
 16 48  1  0
 17 49  1  0
 18 50  1  0
 21 51  1  0
 21 52  1  0
 22 53  1  0
 24 54  1  0
 25 55  1  0
 26 56  1  0
 27 57  1  0
 29 58  1  0
 31 59  1  0
 35 60  1  0
 38 61  1  0
 38 62  1  0
M  CHG  1   5  -1
M  END
>  <EmbedRMS>  (99) 
0.08818814940985116

$$$$

     RDKit          3D

 62 65  0  0  0  0  0  0  0  0999 V2000
   10.2807   43.7760   33.8098 C   0  0  0  0  0  0  0  0  0  0  0  0
   11.4068   43.5917   34.3592 O   0  0  0  0  0  0  0  0  0  0  0  0
    9.3680   42.7302   33.7001 O   0  0  0  0  0  0  0  0  0  0  0  0
    9.8863   41.2341   34.2847 P   0  0  0  0  0  5  0  0  0  0  0  0
   10.3665   41.4699   35.8751 O   0  0  0  0  0  1  0  0  0  0  0  0
    9.9523   45.1160   33.2452 C   0  0  2  0  0  0  0  0  0  0  0  0
   11.0747   46.0259   33.4812 N   0  0  0  0  0  0  0  0  0  0  0  0
    8.6544   45.6911   33.8547 C   0  0  0  0  0  0  0  0  0  0  0  0
    7.4405   44.9343   33.4078 C   0  0  0  0  0  0  0  0  0  0  0  0
    7.0718   44.9600   32.0581 O   0  0  0  0  0  0  0  0  0  0  0  0
    6.7722   44.2701   34.2465 O   0  0  0  0  0  0  0  0  0  0  0  0
    5.9395   44.2634   31.5430 C   0  0  0  0  0  0  0  0  0  0  0  0
    4.6658   44.9313   31.9840 C   0  0  0  0  0  0  0  0  0  0  0  0
    3.7997   44.2961   32.8899 C   0  0  0  0  0  0  0  0  0  0  0  0
    4.3461   46.2134   31.5086 C   0  0  0  0  0  0  0  0  0  0  0  0
    2.6270   44.9338   33.3069 C   0  0  0  0  0  0  0  0  0  0  0  0
    3.1724   46.8475   31.9279 C   0  0  0  0  0  0  0  0  0  0  0  0
    2.3132   46.2081   32.8259 C   0  0  0  0  0  0  0  0  0  0  0  0
    8.8085   40.1914   34.2088 O   0  0  0  0  0  0  0  0  0  0  0  0
   11.2377   40.7906   33.3687 O   0  0  0  0  0  0  0  0  0  0  0  0
   10.9155   40.6898   31.9959 C   0  0  0  0  0  0  0  0  0  0  0  0
   11.5269   39.3898   31.4373 C   0  0  0  0  0  0  0  0  0  0  0  0
   12.7507   39.0916   32.0837 O   0  0  0  0  0  0  0  0  0  0  0  0
   10.6121   38.1916   31.6452 C   0  0  0  0  0  0  0  0  0  0  0  0
   12.9429   37.6853   32.0295 C   0  0  0  0  0  0  0  0  0  0  0  0
    9.6069   38.0858   30.6603 O   0  0  0  0  0  0  0  0  0  0  0  0
   11.5844   37.0186   31.6879 C   0  0  0  0  0  0  0  0  0  0  0  0
   13.4898   37.2163   33.3250 N   0  0  0  0  0  0  0  0  0  0  0  0
   11.6201   36.3063   30.4693 O   0  0  0  0  0  0  0  0  0  0  0  0
   14.4758   36.3263   33.5738 C   0  0  0  0  0  0  0  0  0  0  0  0
   13.1175   37.6308   34.5699 C   0  0  0  0  0  0  0  0  0  0  0  0
   15.2065   35.6139   32.6746 N   0  0  0  0  0  0  0  0  0  0  0  0
   14.6731   36.2267   34.9190 C   0  0  0  0  0  0  0  0  0  0  0  0
   13.8224   37.0450   35.5792 N   0  0  0  0  0  0  0  0  0  0  0  0
   16.1640   34.7596   33.1551 C   0  0  0  0  0  0  0  0  0  0  0  0
   15.6517   35.3489   35.4136 C   0  0  0  0  0  0  0  0  0  0  0  0
   16.3795   34.6310   34.5046 N   0  0  0  0  0  0  0  0  0  0  0  0
   15.9006   35.1931   36.8094 N   0  0  0  0  0  0  0  0  0  0  0  0
    9.8234   44.9999   32.1460 H   0  0  0  0  0  0  0  0  0  0  0  0
   11.1115   46.2833   34.4955 H   0  0  0  0  0  0  0  0  0  0  0  0
   10.9084   46.9080   32.9439 H   0  0  0  0  0  0  0  0  0  0  0  0
    8.5314   46.7471   33.5315 H   0  0  0  0  0  0  0  0  0  0  0  0
    8.7201   45.6865   34.9655 H   0  0  0  0  0  0  0  0  0  0  0  0
    5.9880   44.2789   30.4337 H   0  0  0  0  0  0  0  0  0  0  0  0
    5.9751   43.1976   31.8592 H   0  0  0  0  0  0  0  0  0  0  0  0
    4.0320   43.3109   33.2748 H   0  0  0  0  0  0  0  0  0  0  0  0
    5.0065   46.7203   30.8158 H   0  0  0  0  0  0  0  0  0  0  0  0
    1.9623   44.4408   34.0043 H   0  0  0  0  0  0  0  0  0  0  0  0
    2.9298   47.8354   31.5580 H   0  0  0  0  0  0  0  0  0  0  0  0
    1.4055   46.7004   33.1502 H   0  0  0  0  0  0  0  0  0  0  0  0
   11.3820   41.5526   31.4741 H   0  0  0  0  0  0  0  0  0  0  0  0
    9.8252   40.7190   31.7591 H   0  0  0  0  0  0  0  0  0  0  0  0
   11.7317   39.5338   30.3519 H   0  0  0  0  0  0  0  0  0  0  0  0
   10.1214   38.2683   32.6412 H   0  0  0  0  0  0  0  0  0  0  0  0
   13.6881   37.4707   31.2319 H   0  0  0  0  0  0  0  0  0  0  0  0
   10.0255   38.1751   29.7656 H   0  0  0  0  0  0  0  0  0  0  0  0
   11.2795   36.3124   32.4915 H   0  0  0  0  0  0  0  0  0  0  0  0
   11.9870   36.9099   29.7714 H   0  0  0  0  0  0  0  0  0  0  0  0
   12.3365   38.3596   34.7453 H   0  0  0  0  0  0  0  0  0  0  0  0
   16.7576   34.1794   32.4622 H   0  0  0  0  0  0  0  0  0  0  0  0
   16.6368   34.5316   37.1418 H   0  0  0  0  0  0  0  0  0  0  0  0
   15.3532   35.7351   37.5143 H   0  0  0  0  0  0  0  0  0  0  0  0
  1  2  2  0
  1  3  1  0
  3  4  1  0
  4  5  1  0
  6  1  1  0
  7  6  1  0
  6  8  1  0
  8  9  1  0
  9 10  1  0
  9 11  2  0
 10 12  1  0
 12 13  1  0
 13 14  2  0
 15 13  1  0
 14 16  1  0
 17 15  2  0
 16 18  2  0
 18 17  1  0
  4 19  2  0
  4 20  1  0
 21 20  1  0
 21 22  1  0
 22 23  1  0
 22 24  1  0
 23 25  1  0
 24 26  1  0
 24 27  1  0
 27 25  1  0
 25 28  1  0
 27 29  1  0
 30 28  1  0
 31 28  1  0
 32 30  2  0
 30 33  1  0
 34 31  2  0
 35 32  1  0
 33 36  2  0
 33 34  1  0
 37 35  2  0
 37 36  1  0
 36 38  1  0
  6 39  1  6
  7 40  1  0
  7 41  1  0
  8 42  1  0
  8 43  1  0
 12 44  1  0
 12 45  1  0
 14 46  1  0
 15 47  1  0
 16 48  1  0
 17 49  1  0
 18 50  1  0
 21 51  1  0
 21 52  1  0
 22 53  1  0
 24 54  1  0
 25 55  1  0
 26 56  1  0
 27 57  1  0
 29 58  1  0
 31 59  1  0
 35 60  1  0
 38 61  1  0
 38 62  1  0
M  CHG  1   5  -1
M  END
>  <EmbedRMS>  (100) 
0.08693559741117447

$$$$

     RDKit          3D

 62 65  0  0  0  0  0  0  0  0999 V2000
   10.2801   43.7766   33.8117 C   0  0  0  0  0  0  0  0  0  0  0  0
   11.4063   43.5922   34.3605 O   0  0  0  0  0  0  0  0  0  0  0  0
    9.3679   42.7302   33.7022 O   0  0  0  0  0  0  0  0  0  0  0  0
    9.8863   41.2337   34.2844 P   0  0  0  0  0  5  0  0  0  0  0  0
   10.3665   41.4686   35.8750 O   0  0  0  0  0  1  0  0  0  0  0  0
    9.9538   45.1157   33.2421 C   0  0  2  0  0  0  0  0  0  0  0  0
   11.0751   46.0261   33.4816 N   0  0  0  0  0  0  0  0  0  0  0  0
    8.6507   45.6971   33.8403 C   0  0  0  0  0  0  0  0  0  0  0  0
    7.4257   44.9125   33.4668 C   0  0  0  0  0  0  0  0  0  0  0  0
    7.3603   44.2619   32.2310 O   0  0  0  0  0  0  0  0  0  0  0  0
    6.4463   44.8772   34.2606 O   0  0  0  0  0  0  0  0  0  0  0  0
    6.2509   43.4643   31.8360 C   0  0  0  0  0  0  0  0  0  0  0  0
    6.5831   42.7712   30.5482 C   0  0  0  0  0  0  0  0  0  0  0  0
    6.4052   43.4340   29.3230 C   0  0  0  0  0  0  0  0  0  0  0  0
    7.1492   41.4855   30.5611 C   0  0  0  0  0  0  0  0  0  0  0  0
    6.7641   42.8072   28.1254 C   0  0  0  0  0  0  0  0  0  0  0  0
    7.5069   40.8627   29.3614 C   0  0  0  0  0  0  0  0  0  0  0  0
    7.3130   41.5219   28.1445 C   0  0  0  0  0  0  0  0  0  0  0  0
    8.8083   40.1913   34.2076 O   0  0  0  0  0  0  0  0  0  0  0  0
   11.2378   40.7912   33.3681 O   0  0  0  0  0  0  0  0  0  0  0  0
   10.9156   40.6899   31.9953 C   0  0  0  0  0  0  0  0  0  0  0  0
   11.5267   39.3899   31.4369 C   0  0  0  0  0  0  0  0  0  0  0  0
   12.7506   39.0918   32.0834 O   0  0  0  0  0  0  0  0  0  0  0  0
   10.6121   38.1916   31.6454 C   0  0  0  0  0  0  0  0  0  0  0  0
   12.9428   37.6854   32.0294 C   0  0  0  0  0  0  0  0  0  0  0  0
    9.6071   38.0845   30.6609 O   0  0  0  0  0  0  0  0  0  0  0  0
   11.5844   37.0187   31.6882 C   0  0  0  0  0  0  0  0  0  0  0  0
   13.4899   37.2166   33.3249 N   0  0  0  0  0  0  0  0  0  0  0  0
   11.6200   36.3064   30.4695 O   0  0  0  0  0  0  0  0  0  0  0  0
   14.4758   36.3264   33.5738 C   0  0  0  0  0  0  0  0  0  0  0  0
   13.1175   37.6309   34.5698 C   0  0  0  0  0  0  0  0  0  0  0  0
   15.2065   35.6140   32.6746 N   0  0  0  0  0  0  0  0  0  0  0  0
   14.6731   36.2268   34.9190 C   0  0  0  0  0  0  0  0  0  0  0  0
   13.8224   37.0451   35.5792 N   0  0  0  0  0  0  0  0  0  0  0  0
   16.1639   34.7596   33.1551 C   0  0  0  0  0  0  0  0  0  0  0  0
   15.6517   35.3489   35.4136 C   0  0  0  0  0  0  0  0  0  0  0  0
   16.3794   34.6310   34.5045 N   0  0  0  0  0  0  0  0  0  0  0  0
   15.9005   35.1931   36.8094 N   0  0  0  0  0  0  0  0  0  0  0  0
    9.8347   44.9977   32.1423 H   0  0  0  0  0  0  0  0  0  0  0  0
   10.9092   46.9090   32.9454 H   0  0  0  0  0  0  0  0  0  0  0  0
   11.1102   46.2821   34.4962 H   0  0  0  0  0  0  0  0  0  0  0  0
    8.5104   46.7355   33.4709 H   0  0  0  0  0  0  0  0  0  0  0  0
    8.7375   45.7413   34.9486 H   0  0  0  0  0  0  0  0  0  0  0  0
    6.0256   42.7138   32.6258 H   0  0  0  0  0  0  0  0  0  0  0  0
    5.3543   44.1088   31.7067 H   0  0  0  0  0  0  0  0  0  0  0  0
    5.9927   44.4351   29.2961 H   0  0  0  0  0  0  0  0  0  0  0  0
    7.3137   40.9673   31.4978 H   0  0  0  0  0  0  0  0  0  0  0  0
    6.6213   43.3199   27.1830 H   0  0  0  0  0  0  0  0  0  0  0  0
    7.9367   39.8703   29.3746 H   0  0  0  0  0  0  0  0  0  0  0  0
    7.5920   41.0388   27.2171 H   0  0  0  0  0  0  0  0  0  0  0  0
   11.3810   41.5529   31.4730 H   0  0  0  0  0  0  0  0  0  0  0  0
    9.8263   40.7182   31.7590 H   0  0  0  0  0  0  0  0  0  0  0  0
   11.7311   39.5338   30.3514 H   0  0  0  0  0  0  0  0  0  0  0  0
   10.1213   38.2687   32.6414 H   0  0  0  0  0  0  0  0  0  0  0  0
   13.6880   37.4707   31.2317 H   0  0  0  0  0  0  0  0  0  0  0  0
   10.0250   38.1764   29.7662 H   0  0  0  0  0  0  0  0  0  0  0  0
   11.2795   36.3125   32.4918 H   0  0  0  0  0  0  0  0  0  0  0  0
   11.9861   36.9103   29.7714 H   0  0  0  0  0  0  0  0  0  0  0  0
   12.3365   38.3597   34.7453 H   0  0  0  0  0  0  0  0  0  0  0  0
   16.7576   34.1795   32.4622 H   0  0  0  0  0  0  0  0  0  0  0  0
   15.3532   35.7351   37.5143 H   0  0  0  0  0  0  0  0  0  0  0  0
   16.6368   34.5316   37.1418 H   0  0  0  0  0  0  0  0  0  0  0  0
  1  2  2  0
  1  3  1  0
  3  4  1  0
  4  5  1  0
  6  1  1  0
  7  6  1  0
  6  8  1  0
  8  9  1  0
  9 10  1  0
  9 11  2  0
 10 12  1  0
 12 13  1  0
 13 14  2  0
 15 13  1  0
 14 16  1  0
 17 15  2  0
 16 18  2  0
 18 17  1  0
  4 19  2  0
  4 20  1  0
 21 20  1  0
 21 22  1  0
 22 23  1  0
 22 24  1  0
 23 25  1  0
 24 26  1  0
 24 27  1  0
 27 25  1  0
 25 28  1  0
 27 29  1  0
 30 28  1  0
 31 28  1  0
 32 30  2  0
 30 33  1  0
 34 31  2  0
 35 32  1  0
 33 36  2  0
 33 34  1  0
 37 35  2  0
 37 36  1  0
 36 38  1  0
  6 39  1  6
  7 40  1  0
  7 41  1  0
  8 42  1  0
  8 43  1  0
 12 44  1  0
 12 45  1  0
 14 46  1  0
 15 47  1  0
 16 48  1  0
 17 49  1  0
 18 50  1  0
 21 51  1  0
 21 52  1  0
 22 53  1  0
 24 54  1  0
 25 55  1  0
 26 56  1  0
 27 57  1  0
 29 58  1  0
 31 59  1  0
 35 60  1  0
 38 61  1  0
 38 62  1  0
M  CHG  1   5  -1
M  END
>  <EmbedRMS>  (101) 
0.08705431462757324

$$$$

     RDKit          3D

 62 65  0  0  0  0  0  0  0  0999 V2000
   10.2862   43.7710   33.8100 C   0  0  0  0  0  0  0  0  0  0  0  0
   11.4101   43.5817   34.3616 O   0  0  0  0  0  0  0  0  0  0  0  0
    9.3666   42.7310   33.7022 O   0  0  0  0  0  0  0  0  0  0  0  0
    9.8845   41.2331   34.2841 P   0  0  0  0  0  5  0  0  0  0  0  0
   10.3659   41.4676   35.8745 O   0  0  0  0  0  1  0  0  0  0  0  0
    9.9609   45.1124   33.2470 C   0  0  2  0  0  0  0  0  0  0  0  0
   11.0652   46.0482   33.4749 N   0  0  0  0  0  0  0  0  0  0  0  0
    8.6650   45.6568   33.8704 C   0  0  0  0  0  0  0  0  0  0  0  0
    8.2704   46.9575   33.2428 C   0  0  0  0  0  0  0  0  0  0  0  0
    7.6287   46.9528   31.9993 O   0  0  0  0  0  0  0  0  0  0  0  0
    8.5517   48.0431   33.8202 O   0  0  0  0  0  0  0  0  0  0  0  0
    7.1991   48.1395   31.3359 C   0  0  0  0  0  0  0  0  0  0  0  0
    6.0066   48.7303   32.0372 C   0  0  0  0  0  0  0  0  0  0  0  0
    4.7789   48.0485   32.0268 C   0  0  0  0  0  0  0  0  0  0  0  0
    6.1128   49.9484   32.7294 C   0  0  0  0  0  0  0  0  0  0  0  0
    3.6711   48.5825   32.6924 C   0  0  0  0  0  0  0  0  0  0  0  0
    5.0025   50.4789   33.3939 C   0  0  0  0  0  0  0  0  0  0  0  0
    3.7825   49.7971   33.3749 C   0  0  0  0  0  0  0  0  0  0  0  0
    8.8069   40.1905   34.2081 O   0  0  0  0  0  0  0  0  0  0  0  0
   11.2363   40.7907   33.3671 O   0  0  0  0  0  0  0  0  0  0  0  0
   10.9133   40.6860   31.9945 C   0  0  0  0  0  0  0  0  0  0  0  0
   11.5168   39.3797   31.4409 C   0  0  0  0  0  0  0  0  0  0  0  0
   12.7487   39.0886   32.0763 O   0  0  0  0  0  0  0  0  0  0  0  0
   10.6051   38.1876   31.6659 C   0  0  0  0  0  0  0  0  0  0  0  0
   12.9411   37.6829   32.0278 C   0  0  0  0  0  0  0  0  0  0  0  0
    9.6358   38.0930   30.6502 O   0  0  0  0  0  0  0  0  0  0  0  0
   11.5827   37.0179   31.6936 C   0  0  0  0  0  0  0  0  0  0  0  0
   13.4909   37.2177   33.3239 N   0  0  0  0  0  0  0  0  0  0  0  0
   11.6141   36.3180   30.4675 O   0  0  0  0  0  0  0  0  0  0  0  0
   14.4762   36.3270   33.5733 C   0  0  0  0  0  0  0  0  0  0  0  0
   13.1179   37.6316   34.5689 C   0  0  0  0  0  0  0  0  0  0  0  0
   15.2067   35.6140   32.6743 N   0  0  0  0  0  0  0  0  0  0  0  0
   14.6731   36.2272   34.9186 C   0  0  0  0  0  0  0  0  0  0  0  0
   13.8223   37.0456   35.5785 N   0  0  0  0  0  0  0  0  0  0  0  0
   16.1639   34.7595   33.1550 C   0  0  0  0  0  0  0  0  0  0  0  0
   15.6515   35.3491   35.4134 C   0  0  0  0  0  0  0  0  0  0  0  0
   16.3792   34.6310   34.5045 N   0  0  0  0  0  0  0  0  0  0  0  0
   15.9002   35.1933   36.8092 N   0  0  0  0  0  0  0  0  0  0  0  0
    9.8108   44.9947   32.1507 H   0  0  0  0  0  0  0  0  0  0  0  0
   11.2747   46.1185   34.4983 H   0  0  0  0  0  0  0  0  0  0  0  0
   11.9219   45.7025   32.9831 H   0  0  0  0  0  0  0  0  0  0  0  0
    7.8367   44.9320   33.7140 H   0  0  0  0  0  0  0  0  0  0  0  0
    8.7947   45.7915   34.9672 H   0  0  0  0  0  0  0  0  0  0  0  0
    6.9119   47.8799   30.2950 H   0  0  0  0  0  0  0  0  0  0  0  0
    8.0398   48.8650   31.2739 H   0  0  0  0  0  0  0  0  0  0  0  0
    4.6821   47.1043   31.5051 H   0  0  0  0  0  0  0  0  0  0  0  0
    7.0527   50.4855   32.7571 H   0  0  0  0  0  0  0  0  0  0  0  0
    2.7267   48.0539   32.6806 H   0  0  0  0  0  0  0  0  0  0  0  0
    5.0883   51.4180   33.9253 H   0  0  0  0  0  0  0  0  0  0  0  0
    2.9245   50.2088   33.8903 H   0  0  0  0  0  0  0  0  0  0  0  0
   11.3854   41.5434   31.4688 H   0  0  0  0  0  0  0  0  0  0  0  0
    9.8232   40.7210   31.7578 H   0  0  0  0  0  0  0  0  0  0  0  0
   11.6993   39.5065   30.3487 H   0  0  0  0  0  0  0  0  0  0  0  0
   10.1120   38.2722   32.6631 H   0  0  0  0  0  0  0  0  0  0  0  0
   13.6816   37.4633   31.2269 H   0  0  0  0  0  0  0  0  0  0  0  0
    9.0037   37.3827   30.9348 H   0  0  0  0  0  0  0  0  0  0  0  0
   11.2846   36.3040   32.4928 H   0  0  0  0  0  0  0  0  0  0  0  0
   11.8850   36.9590   29.7588 H   0  0  0  0  0  0  0  0  0  0  0  0
   12.3363   38.3599   34.7441 H   0  0  0  0  0  0  0  0  0  0  0  0
   16.7574   34.1791   32.4623 H   0  0  0  0  0  0  0  0  0  0  0  0
   16.6363   34.5316   37.1417 H   0  0  0  0  0  0  0  0  0  0  0  0
   15.3529   35.7355   37.5141 H   0  0  0  0  0  0  0  0  0  0  0  0
  1  2  2  0
  1  3  1  0
  3  4  1  0
  4  5  1  0
  6  1  1  0
  7  6  1  0
  6  8  1  0
  8  9  1  0
  9 10  1  0
  9 11  2  0
 10 12  1  0
 12 13  1  0
 13 14  2  0
 15 13  1  0
 14 16  1  0
 17 15  2  0
 16 18  2  0
 18 17  1  0
  4 19  2  0
  4 20  1  0
 21 20  1  0
 21 22  1  0
 22 23  1  0
 22 24  1  0
 23 25  1  0
 24 26  1  0
 24 27  1  0
 27 25  1  0
 25 28  1  0
 27 29  1  0
 30 28  1  0
 31 28  1  0
 32 30  2  0
 30 33  1  0
 34 31  2  0
 35 32  1  0
 33 36  2  0
 33 34  1  0
 37 35  2  0
 37 36  1  0
 36 38  1  0
  6 39  1  6
  7 40  1  0
  7 41  1  0
  8 42  1  0
  8 43  1  0
 12 44  1  0
 12 45  1  0
 14 46  1  0
 15 47  1  0
 16 48  1  0
 17 49  1  0
 18 50  1  0
 21 51  1  0
 21 52  1  0
 22 53  1  0
 24 54  1  0
 25 55  1  0
 26 56  1  0
 27 57  1  0
 29 58  1  0
 31 59  1  0
 35 60  1  0
 38 61  1  0
 38 62  1  0
M  CHG  1   5  -1
M  END
>  <EmbedRMS>  (102) 
0.08837593496583479

$$$$

     RDKit          3D

 62 65  0  0  0  0  0  0  0  0999 V2000
   10.2862   43.7717   33.8043 C   0  0  0  0  0  0  0  0  0  0  0  0
   11.4114   43.5870   34.3546 O   0  0  0  0  0  0  0  0  0  0  0  0
    9.3671   42.7309   33.7002 O   0  0  0  0  0  0  0  0  0  0  0  0
    9.8851   41.2344   34.2851 P   0  0  0  0  0  5  0  0  0  0  0  0
   10.3647   41.4709   35.8757 O   0  0  0  0  0  1  0  0  0  0  0  0
    9.9566   45.1116   33.2468 C   0  0  2  0  0  0  0  0  0  0  0  0
   11.0672   46.0363   33.4856 N   0  0  0  0  0  0  0  0  0  0  0  0
    8.6224   45.6577   33.8044 C   0  0  0  0  0  0  0  0  0  0  0  0
    8.6154   45.7706   35.3007 C   0  0  0  0  0  0  0  0  0  0  0  0
    8.3981   44.6249   36.0746 O   0  0  0  0  0  0  0  0  0  0  0  0
    8.8347   46.8862   35.8469 O   0  0  0  0  0  0  0  0  0  0  0  0
    8.3819   44.6324   37.4997 C   0  0  0  0  0  0  0  0  0  0  0  0
    7.1270   45.2889   38.0059 C   0  0  0  0  0  0  0  0  0  0  0  0
    7.1810   46.5325   38.6574 C   0  0  0  0  0  0  0  0  0  0  0  0
    5.8826   44.6704   37.8035 C   0  0  0  0  0  0  0  0  0  0  0  0
    6.0057   47.1427   39.1069 C   0  0  0  0  0  0  0  0  0  0  0  0
    4.7097   45.2839   38.2546 C   0  0  0  0  0  0  0  0  0  0  0  0
    4.7712   46.5187   38.9064 C   0  0  0  0  0  0  0  0  0  0  0  0
    8.8078   40.1914   34.2088 O   0  0  0  0  0  0  0  0  0  0  0  0
   11.2378   40.7904   33.3703 O   0  0  0  0  0  0  0  0  0  0  0  0
   10.9186   40.6905   31.9967 C   0  0  0  0  0  0  0  0  0  0  0  0
   11.5174   39.3825   31.4414 C   0  0  0  0  0  0  0  0  0  0  0  0
   12.7494   39.0893   32.0757 O   0  0  0  0  0  0  0  0  0  0  0  0
   10.6036   38.1899   31.6660 C   0  0  0  0  0  0  0  0  0  0  0  0
   12.9401   37.6834   32.0276 C   0  0  0  0  0  0  0  0  0  0  0  0
    9.6376   38.0785   30.6474 O   0  0  0  0  0  0  0  0  0  0  0  0
   11.5803   37.0204   31.6937 C   0  0  0  0  0  0  0  0  0  0  0  0
   13.4902   37.2177   33.3237 N   0  0  0  0  0  0  0  0  0  0  0  0
   11.6118   36.3194   30.4680 O   0  0  0  0  0  0  0  0  0  0  0  0
   14.4759   36.3271   33.5731 C   0  0  0  0  0  0  0  0  0  0  0  0
   13.1176   37.6317   34.5688 C   0  0  0  0  0  0  0  0  0  0  0  0
   15.2064   35.6141   32.6742 N   0  0  0  0  0  0  0  0  0  0  0  0
   14.6729   36.2274   34.9184 C   0  0  0  0  0  0  0  0  0  0  0  0
   13.8221   37.0457   35.5783 N   0  0  0  0  0  0  0  0  0  0  0  0
   16.1637   34.7597   33.1549 C   0  0  0  0  0  0  0  0  0  0  0  0
   15.6514   35.3493   35.4133 C   0  0  0  0  0  0  0  0  0  0  0  0
   16.3791   34.6312   34.5044 N   0  0  0  0  0  0  0  0  0  0  0  0
   15.9001   35.1935   36.8091 N   0  0  0  0  0  0  0  0  0  0  0  0
    9.8403   44.9886   32.1476 H   0  0  0  0  0  0  0  0  0  0  0  0
   11.1537   46.2383   34.5083 H   0  0  0  0  0  0  0  0  0  0  0  0
   10.8570   46.9421   33.0064 H   0  0  0  0  0  0  0  0  0  0  0  0
    8.4148   46.6534   33.3552 H   0  0  0  0  0  0  0  0  0  0  0  0
    7.7920   44.9863   33.4959 H   0  0  0  0  0  0  0  0  0  0  0  0
    8.4093   43.5822   37.8596 H   0  0  0  0  0  0  0  0  0  0  0  0
    9.2946   45.1367   37.8868 H   0  0  0  0  0  0  0  0  0  0  0  0
    8.1297   47.0303   38.8153 H   0  0  0  0  0  0  0  0  0  0  0  0
    5.8225   43.7158   37.2954 H   0  0  0  0  0  0  0  0  0  0  0  0
    6.0518   48.1004   39.6091 H   0  0  0  0  0  0  0  0  0  0  0  0
    3.7530   44.8028   38.0973 H   0  0  0  0  0  0  0  0  0  0  0  0
    3.8625   46.9927   39.2543 H   0  0  0  0  0  0  0  0  0  0  0  0
    9.8308   40.7396   31.7566 H   0  0  0  0  0  0  0  0  0  0  0  0
   11.3995   41.5455   31.4752 H   0  0  0  0  0  0  0  0  0  0  0  0
   11.6987   39.5095   30.3492 H   0  0  0  0  0  0  0  0  0  0  0  0
   10.1129   38.2588   32.6664 H   0  0  0  0  0  0  0  0  0  0  0  0
   13.6800   37.4628   31.2265 H   0  0  0  0  0  0  0  0  0  0  0  0
    8.8953   38.6909   30.8891 H   0  0  0  0  0  0  0  0  0  0  0  0
   11.2831   36.3060   32.4929 H   0  0  0  0  0  0  0  0  0  0  0  0
   11.8859   36.9590   29.7593 H   0  0  0  0  0  0  0  0  0  0  0  0
   12.3360   38.3600   34.7442 H   0  0  0  0  0  0  0  0  0  0  0  0
   16.7572   34.1793   32.4621 H   0  0  0  0  0  0  0  0  0  0  0  0
   16.6362   34.5318   37.1416 H   0  0  0  0  0  0  0  0  0  0  0  0
   15.3528   35.7356   37.5140 H   0  0  0  0  0  0  0  0  0  0  0  0
  1  2  2  0
  1  3  1  0
  3  4  1  0
  4  5  1  0
  6  1  1  0
  7  6  1  0
  6  8  1  0
  8  9  1  0
  9 10  1  0
  9 11  2  0
 10 12  1  0
 12 13  1  0
 13 14  2  0
 15 13  1  0
 14 16  1  0
 17 15  2  0
 16 18  2  0
 18 17  1  0
  4 19  2  0
  4 20  1  0
 21 20  1  0
 21 22  1  0
 22 23  1  0
 22 24  1  0
 23 25  1  0
 24 26  1  0
 24 27  1  0
 27 25  1  0
 25 28  1  0
 27 29  1  0
 30 28  1  0
 31 28  1  0
 32 30  2  0
 30 33  1  0
 34 31  2  0
 35 32  1  0
 33 36  2  0
 33 34  1  0
 37 35  2  0
 37 36  1  0
 36 38  1  0
  6 39  1  6
  7 40  1  0
  7 41  1  0
  8 42  1  0
  8 43  1  0
 12 44  1  0
 12 45  1  0
 14 46  1  0
 15 47  1  0
 16 48  1  0
 17 49  1  0
 18 50  1  0
 21 51  1  0
 21 52  1  0
 22 53  1  0
 24 54  1  0
 25 55  1  0
 26 56  1  0
 27 57  1  0
 29 58  1  0
 31 59  1  0
 35 60  1  0
 38 61  1  0
 38 62  1  0
M  CHG  1   5  -1
M  END
>  <EmbedRMS>  (103) 
0.0882008100843594

$$$$

     RDKit          3D

 62 65  0  0  0  0  0  0  0  0999 V2000
   10.2847   43.7726   33.8070 C   0  0  0  0  0  0  0  0  0  0  0  0
   11.4104   43.5873   34.3563 O   0  0  0  0  0  0  0  0  0  0  0  0
    9.3663   42.7314   33.7016 O   0  0  0  0  0  0  0  0  0  0  0  0
    9.8851   41.2342   34.2844 P   0  0  0  0  0  5  0  0  0  0  0  0
   10.3661   41.4696   35.8747 O   0  0  0  0  0  1  0  0  0  0  0  0
    9.9582   45.1107   33.2438 C   0  0  2  0  0  0  0  0  0  0  0  0
   11.0677   46.0367   33.4845 N   0  0  0  0  0  0  0  0  0  0  0  0
    8.6194   45.6578   33.7892 C   0  0  0  0  0  0  0  0  0  0  0  0
    8.6105   45.8055   35.2821 C   0  0  0  0  0  0  0  0  0  0  0  0
    9.0141   47.0142   35.8555 O   0  0  0  0  0  0  0  0  0  0  0  0
    8.2698   44.8312   36.0074 O   0  0  0  0  0  0  0  0  0  0  0  0
    9.0871   47.2102   37.2628 C   0  0  0  0  0  0  0  0  0  0  0  0
    9.6008   48.5919   37.5416 C   0  0  0  0  0  0  0  0  0  0  0  0
   10.9828   48.8429   37.5437 C   0  0  0  0  0  0  0  0  0  0  0  0
    8.7063   49.6577   37.7338 C   0  0  0  0  0  0  0  0  0  0  0  0
   11.4626   50.1377   37.7648 C   0  0  0  0  0  0  0  0  0  0  0  0
    9.1902   50.9512   37.9547 C   0  0  0  0  0  0  0  0  0  0  0  0
   10.5672   51.1906   37.9727 C   0  0  0  0  0  0  0  0  0  0  0  0
    8.8076   40.1912   34.2089 O   0  0  0  0  0  0  0  0  0  0  0  0
   11.2368   40.7904   33.3681 O   0  0  0  0  0  0  0  0  0  0  0  0
   10.9149   40.6882   31.9951 C   0  0  0  0  0  0  0  0  0  0  0  0
   11.5259   39.3871   31.4366 C   0  0  0  0  0  0  0  0  0  0  0  0
   12.7490   39.0894   32.0820 O   0  0  0  0  0  0  0  0  0  0  0  0
   10.6122   38.1893   31.6462 C   0  0  0  0  0  0  0  0  0  0  0  0
   12.9373   37.6828   32.0301 C   0  0  0  0  0  0  0  0  0  0  0  0
    9.6150   38.0838   30.6538 O   0  0  0  0  0  0  0  0  0  0  0  0
   11.5793   37.0137   31.7014 C   0  0  0  0  0  0  0  0  0  0  0  0
   13.4906   37.2170   33.3242 N   0  0  0  0  0  0  0  0  0  0  0  0
   11.6217   36.3253   30.4725 O   0  0  0  0  0  0  0  0  0  0  0  0
   14.4763   36.3266   33.5731 C   0  0  0  0  0  0  0  0  0  0  0  0
   13.1182   37.6308   34.5694 C   0  0  0  0  0  0  0  0  0  0  0  0
   15.2065   35.6137   32.6740 N   0  0  0  0  0  0  0  0  0  0  0  0
   14.6735   36.2270   34.9185 C   0  0  0  0  0  0  0  0  0  0  0  0
   13.8229   37.0451   35.5787 N   0  0  0  0  0  0  0  0  0  0  0  0
   16.1639   34.7593   33.1547 C   0  0  0  0  0  0  0  0  0  0  0  0
   15.6519   35.3489   35.4132 C   0  0  0  0  0  0  0  0  0  0  0  0
   16.3794   34.6308   34.5042 N   0  0  0  0  0  0  0  0  0  0  0  0
   15.9006   35.1931   36.8090 N   0  0  0  0  0  0  0  0  0  0  0  0
    9.8489   44.9836   32.1444 H   0  0  0  0  0  0  0  0  0  0  0  0
   10.8510   46.9481   33.0193 H   0  0  0  0  0  0  0  0  0  0  0  0
   11.1661   46.2249   34.5087 H   0  0  0  0  0  0  0  0  0  0  0  0
    7.7911   44.9812   33.4845 H   0  0  0  0  0  0  0  0  0  0  0  0
    8.4119   46.6473   33.3278 H   0  0  0  0  0  0  0  0  0  0  0  0
    9.7702   46.4559   37.7116 H   0  0  0  0  0  0  0  0  0  0  0  0
    8.0796   47.0727   37.7132 H   0  0  0  0  0  0  0  0  0  0  0  0
   11.6865   48.0373   37.3732 H   0  0  0  0  0  0  0  0  0  0  0  0
    7.6369   49.4879   37.7120 H   0  0  0  0  0  0  0  0  0  0  0  0
   12.5285   50.3256   37.7709 H   0  0  0  0  0  0  0  0  0  0  0  0
    8.4976   51.7687   38.1080 H   0  0  0  0  0  0  0  0  0  0  0  0
   10.9400   52.1924   38.1423 H   0  0  0  0  0  0  0  0  0  0  0  0
   11.3819   41.5504   31.4726 H   0  0  0  0  0  0  0  0  0  0  0  0
    9.8247   40.7178   31.7584 H   0  0  0  0  0  0  0  0  0  0  0  0
   11.7289   39.5288   30.3505 H   0  0  0  0  0  0  0  0  0  0  0  0
   10.1138   38.2717   32.6380 H   0  0  0  0  0  0  0  0  0  0  0  0
   13.6725   37.4638   31.2240 H   0  0  0  0  0  0  0  0  0  0  0  0
   10.0536   38.1086   29.7639 H   0  0  0  0  0  0  0  0  0  0  0  0
   11.2646   36.3134   32.5107 H   0  0  0  0  0  0  0  0  0  0  0  0
   12.1551   35.5033   30.6315 H   0  0  0  0  0  0  0  0  0  0  0  0
   12.3362   38.3586   34.7451 H   0  0  0  0  0  0  0  0  0  0  0  0
   16.7573   34.1789   32.4619 H   0  0  0  0  0  0  0  0  0  0  0  0
   16.6366   34.5314   37.1415 H   0  0  0  0  0  0  0  0  0  0  0  0
   15.3533   35.7353   37.5139 H   0  0  0  0  0  0  0  0  0  0  0  0
  1  2  2  0
  1  3  1  0
  3  4  1  0
  4  5  1  0
  6  1  1  0
  7  6  1  0
  6  8  1  0
  8  9  1  0
  9 10  1  0
  9 11  2  0
 10 12  1  0
 12 13  1  0
 13 14  2  0
 15 13  1  0
 14 16  1  0
 17 15  2  0
 16 18  2  0
 18 17  1  0
  4 19  2  0
  4 20  1  0
 21 20  1  0
 21 22  1  0
 22 23  1  0
 22 24  1  0
 23 25  1  0
 24 26  1  0
 24 27  1  0
 27 25  1  0
 25 28  1  0
 27 29  1  0
 30 28  1  0
 31 28  1  0
 32 30  2  0
 30 33  1  0
 34 31  2  0
 35 32  1  0
 33 36  2  0
 33 34  1  0
 37 35  2  0
 37 36  1  0
 36 38  1  0
  6 39  1  6
  7 40  1  0
  7 41  1  0
  8 42  1  0
  8 43  1  0
 12 44  1  0
 12 45  1  0
 14 46  1  0
 15 47  1  0
 16 48  1  0
 17 49  1  0
 18 50  1  0
 21 51  1  0
 21 52  1  0
 22 53  1  0
 24 54  1  0
 25 55  1  0
 26 56  1  0
 27 57  1  0
 29 58  1  0
 31 59  1  0
 35 60  1  0
 38 61  1  0
 38 62  1  0
M  CHG  1   5  -1
M  END
>  <EmbedRMS>  (104) 
0.08779695726088359

$$$$

     RDKit          3D

 62 65  0  0  0  0  0  0  0  0999 V2000
   10.2810   43.7760   33.8097 C   0  0  0  0  0  0  0  0  0  0  0  0
   11.4071   43.5919   34.3591 O   0  0  0  0  0  0  0  0  0  0  0  0
    9.3695   42.7295   33.6981 O   0  0  0  0  0  0  0  0  0  0  0  0
    9.8866   41.2337   34.2840 P   0  0  0  0  0  5  0  0  0  0  0  0
   10.3665   41.4702   35.8745 O   0  0  0  0  0  1  0  0  0  0  0  0
    9.9501   45.1174   33.2493 C   0  0  2  0  0  0  0  0  0  0  0  0
   11.0754   46.0253   33.4791 N   0  0  0  0  0  0  0  0  0  0  0  0
    8.6576   45.6938   33.8700 C   0  0  0  0  0  0  0  0  0  0  0  0
    7.4386   44.9419   33.4305 C   0  0  0  0  0  0  0  0  0  0  0  0
    6.8311   44.0408   34.3124 O   0  0  0  0  0  0  0  0  0  0  0  0
    6.9912   45.1030   32.2622 O   0  0  0  0  0  0  0  0  0  0  0  0
    5.6946   43.2525   33.9673 C   0  0  0  0  0  0  0  0  0  0  0  0
    4.4629   44.1122   33.8880 C   0  0  0  0  0  0  0  0  0  0  0  0
    3.8341   44.3518   32.6546 C   0  0  0  0  0  0  0  0  0  0  0  0
    3.9461   44.7047   35.0516 C   0  0  0  0  0  0  0  0  0  0  0  0
    2.6997   45.1671   32.5901 C   0  0  0  0  0  0  0  0  0  0  0  0
    2.8115   45.5192   34.9827 C   0  0  0  0  0  0  0  0  0  0  0  0
    2.1884   45.7498   33.7531 C   0  0  0  0  0  0  0  0  0  0  0  0
    8.8081   40.1918   34.2085 O   0  0  0  0  0  0  0  0  0  0  0  0
   11.2378   40.7892   33.3680 O   0  0  0  0  0  0  0  0  0  0  0  0
   10.9156   40.6880   31.9950 C   0  0  0  0  0  0  0  0  0  0  0  0
   11.5261   39.3870   31.4363 C   0  0  0  0  0  0  0  0  0  0  0  0
   12.7492   39.0892   32.0817 O   0  0  0  0  0  0  0  0  0  0  0  0
   10.6123   38.1893   31.6461 C   0  0  0  0  0  0  0  0  0  0  0  0
   12.9373   37.6826   32.0300 C   0  0  0  0  0  0  0  0  0  0  0  0
    9.6149   38.0839   30.6538 O   0  0  0  0  0  0  0  0  0  0  0  0
   11.5792   37.0136   31.7014 C   0  0  0  0  0  0  0  0  0  0  0  0
   13.4906   37.2169   33.3242 N   0  0  0  0  0  0  0  0  0  0  0  0
   11.6216   36.3252   30.4725 O   0  0  0  0  0  0  0  0  0  0  0  0
   14.4763   36.3266   33.5731 C   0  0  0  0  0  0  0  0  0  0  0  0
   13.1181   37.6308   34.5694 C   0  0  0  0  0  0  0  0  0  0  0  0
   15.2065   35.6137   32.6740 N   0  0  0  0  0  0  0  0  0  0  0  0
   14.6735   36.2270   34.9185 C   0  0  0  0  0  0  0  0  0  0  0  0
   13.8229   37.0451   35.5787 N   0  0  0  0  0  0  0  0  0  0  0  0
   16.1639   34.7593   33.1547 C   0  0  0  0  0  0  0  0  0  0  0  0
   15.6518   35.3489   35.4132 C   0  0  0  0  0  0  0  0  0  0  0  0
   16.3794   34.6308   34.5042 N   0  0  0  0  0  0  0  0  0  0  0  0
   15.9006   35.1931   36.8090 N   0  0  0  0  0  0  0  0  0  0  0  0
    9.8117   45.0037   32.1509 H   0  0  0  0  0  0  0  0  0  0  0  0
   10.9075   46.9080   32.9432 H   0  0  0  0  0  0  0  0  0  0  0  0
   11.1187   46.2822   34.4933 H   0  0  0  0  0  0  0  0  0  0  0  0
    8.7258   45.6754   34.9799 H   0  0  0  0  0  0  0  0  0  0  0  0
    8.5390   46.7552   33.5613 H   0  0  0  0  0  0  0  0  0  0  0  0
    5.5458   42.4822   34.7532 H   0  0  0  0  0  0  0  0  0  0  0  0
    5.8830   42.7149   33.0119 H   0  0  0  0  0  0  0  0  0  0  0  0
    4.2216   43.9110   31.7445 H   0  0  0  0  0  0  0  0  0  0  0  0
    4.4233   44.5366   36.0092 H   0  0  0  0  0  0  0  0  0  0  0  0
    2.2179   45.3486   31.6381 H   0  0  0  0  0  0  0  0  0  0  0  0
    2.4163   45.9729   35.8824 H   0  0  0  0  0  0  0  0  0  0  0  0
    1.3107   46.3810   33.7013 H   0  0  0  0  0  0  0  0  0  0  0  0
    9.8253   40.7180   31.7584 H   0  0  0  0  0  0  0  0  0  0  0  0
   11.3828   41.5503   31.4729 H   0  0  0  0  0  0  0  0  0  0  0  0
   11.7290   39.5287   30.3502 H   0  0  0  0  0  0  0  0  0  0  0  0
   10.1139   38.2719   32.6379 H   0  0  0  0  0  0  0  0  0  0  0  0
   13.6725   37.4634   31.2239 H   0  0  0  0  0  0  0  0  0  0  0  0
   10.0535   38.1085   29.7638 H   0  0  0  0  0  0  0  0  0  0  0  0
   11.2645   36.3134   32.5107 H   0  0  0  0  0  0  0  0  0  0  0  0
   12.1548   35.5031   30.6316 H   0  0  0  0  0  0  0  0  0  0  0  0
   12.3362   38.3586   34.7450 H   0  0  0  0  0  0  0  0  0  0  0  0
   16.7573   34.1788   32.4619 H   0  0  0  0  0  0  0  0  0  0  0  0
   15.3533   35.7353   37.5139 H   0  0  0  0  0  0  0  0  0  0  0  0
   16.6366   34.5314   37.1415 H   0  0  0  0  0  0  0  0  0  0  0  0
  1  2  2  0
  1  3  1  0
  3  4  1  0
  4  5  1  0
  6  1  1  0
  7  6  1  0
  6  8  1  0
  8  9  1  0
  9 10  1  0
  9 11  2  0
 10 12  1  0
 12 13  1  0
 13 14  2  0
 15 13  1  0
 14 16  1  0
 17 15  2  0
 16 18  2  0
 18 17  1  0
  4 19  2  0
  4 20  1  0
 21 20  1  0
 21 22  1  0
 22 23  1  0
 22 24  1  0
 23 25  1  0
 24 26  1  0
 24 27  1  0
 27 25  1  0
 25 28  1  0
 27 29  1  0
 30 28  1  0
 31 28  1  0
 32 30  2  0
 30 33  1  0
 34 31  2  0
 35 32  1  0
 33 36  2  0
 33 34  1  0
 37 35  2  0
 37 36  1  0
 36 38  1  0
  6 39  1  6
  7 40  1  0
  7 41  1  0
  8 42  1  0
  8 43  1  0
 12 44  1  0
 12 45  1  0
 14 46  1  0
 15 47  1  0
 16 48  1  0
 17 49  1  0
 18 50  1  0
 21 51  1  0
 21 52  1  0
 22 53  1  0
 24 54  1  0
 25 55  1  0
 26 56  1  0
 27 57  1  0
 29 58  1  0
 31 59  1  0
 35 60  1  0
 38 61  1  0
 38 62  1  0
M  CHG  1   5  -1
M  END
>  <EmbedRMS>  (105) 
0.08800175905915969

$$$$

     RDKit          3D

 62 65  0  0  0  0  0  0  0  0999 V2000
   10.2810   43.7760   33.8096 C   0  0  0  0  0  0  0  0  0  0  0  0
   11.4071   43.5919   34.3591 O   0  0  0  0  0  0  0  0  0  0  0  0
    9.3696   42.7294   33.6981 O   0  0  0  0  0  0  0  0  0  0  0  0
    9.8867   41.2337   34.2840 P   0  0  0  0  0  5  0  0  0  0  0  0
   10.3664   41.4702   35.8746 O   0  0  0  0  0  1  0  0  0  0  0  0
    9.9503   45.1173   33.2490 C   0  0  2  0  0  0  0  0  0  0  0  0
   11.0753   46.0254   33.4794 N   0  0  0  0  0  0  0  0  0  0  0  0
    8.6573   45.6935   33.8685 C   0  0  0  0  0  0  0  0  0  0  0  0
    7.4387   44.9415   33.4279 C   0  0  0  0  0  0  0  0  0  0  0  0
    6.8292   44.0419   34.3099 O   0  0  0  0  0  0  0  0  0  0  0  0
    6.9935   45.1012   32.2585 O   0  0  0  0  0  0  0  0  0  0  0  0
    5.6934   43.2531   33.9636 C   0  0  0  0  0  0  0  0  0  0  0  0
    4.4623   44.1130   33.8781 C   0  0  0  0  0  0  0  0  0  0  0  0
    3.8366   44.3483   32.6423 C   0  0  0  0  0  0  0  0  0  0  0  0
    3.9430   44.7101   35.0382 C   0  0  0  0  0  0  0  0  0  0  0  0
    2.7027   45.1640   32.5720 C   0  0  0  0  0  0  0  0  0  0  0  0
    2.8089   45.5249   34.9636 C   0  0  0  0  0  0  0  0  0  0  0  0
    2.1889   45.7512   33.7316 C   0  0  0  0  0  0  0  0  0  0  0  0
    8.8082   40.1918   34.2085 O   0  0  0  0  0  0  0  0  0  0  0  0
   11.2381   40.7891   33.3683 O   0  0  0  0  0  0  0  0  0  0  0  0
   10.9163   40.6887   31.9952 C   0  0  0  0  0  0  0  0  0  0  0  0
   11.5253   39.3872   31.4363 C   0  0  0  0  0  0  0  0  0  0  0  0
   12.7487   39.0878   32.0800 O   0  0  0  0  0  0  0  0  0  0  0  0
   10.6100   38.1909   31.6470 C   0  0  0  0  0  0  0  0  0  0  0  0
   12.9348   37.6806   32.0291 C   0  0  0  0  0  0  0  0  0  0  0  0
    9.6126   38.0874   30.6547 O   0  0  0  0  0  0  0  0  0  0  0  0
   11.5766   37.0133   31.7025 C   0  0  0  0  0  0  0  0  0  0  0  0
   13.4901   37.2165   33.3236 N   0  0  0  0  0  0  0  0  0  0  0  0
   11.6320   36.3230   30.4741 O   0  0  0  0  0  0  0  0  0  0  0  0
   14.4763   36.3266   33.5727 C   0  0  0  0  0  0  0  0  0  0  0  0
   13.1179   37.6307   34.5688 C   0  0  0  0  0  0  0  0  0  0  0  0
   15.2065   35.6135   32.6738 N   0  0  0  0  0  0  0  0  0  0  0  0
   14.6736   36.2272   34.9182 C   0  0  0  0  0  0  0  0  0  0  0  0
   13.8228   37.0453   35.5783 N   0  0  0  0  0  0  0  0  0  0  0  0
   16.1640   34.7592   33.1547 C   0  0  0  0  0  0  0  0  0  0  0  0
   15.6518   35.3491   35.4131 C   0  0  0  0  0  0  0  0  0  0  0  0
   16.3795   34.6309   34.5042 N   0  0  0  0  0  0  0  0  0  0  0  0
   15.9004   35.1933   36.8089 N   0  0  0  0  0  0  0  0  0  0  0  0
    9.8128   45.0034   32.1504 H   0  0  0  0  0  0  0  0  0  0  0  0
   11.1179   46.2824   34.4935 H   0  0  0  0  0  0  0  0  0  0  0  0
   10.9076   46.9079   32.9433 H   0  0  0  0  0  0  0  0  0  0  0  0
    8.5387   46.7549   33.5598 H   0  0  0  0  0  0  0  0  0  0  0  0
    8.7244   45.6751   34.9785 H   0  0  0  0  0  0  0  0  0  0  0  0
    5.8846   42.7129   33.0103 H   0  0  0  0  0  0  0  0  0  0  0  0
    5.5420   42.4850   34.7512 H   0  0  0  0  0  0  0  0  0  0  0  0
    4.2261   43.9040   31.7348 H   0  0  0  0  0  0  0  0  0  0  0  0
    4.4177   44.5453   35.9977 H   0  0  0  0  0  0  0  0  0  0  0  0
    2.2234   45.3421   31.6181 H   0  0  0  0  0  0  0  0  0  0  0  0
    2.4118   45.9822   35.8606 H   0  0  0  0  0  0  0  0  0  0  0  0
    1.3117   46.3827   33.6753 H   0  0  0  0  0  0  0  0  0  0  0  0
   11.3850   41.5505   31.4736 H   0  0  0  0  0  0  0  0  0  0  0  0
    9.8263   40.7204   31.7580 H   0  0  0  0  0  0  0  0  0  0  0  0
   11.7273   39.5286   30.3500 H   0  0  0  0  0  0  0  0  0  0  0  0
   10.1123   38.2732   32.6390 H   0  0  0  0  0  0  0  0  0  0  0  0
   13.6685   37.4588   31.2224 H   0  0  0  0  0  0  0  0  0  0  0  0
   10.0513   38.1110   29.7648 H   0  0  0  0  0  0  0  0  0  0  0  0
   11.2801   36.3128   32.5195 H   0  0  0  0  0  0  0  0  0  0  0  0
   10.8623   35.6960   30.4645 H   0  0  0  0  0  0  0  0  0  0  0  0
   12.3355   38.3580   34.7444 H   0  0  0  0  0  0  0  0  0  0  0  0
   16.7575   34.1787   32.4620 H   0  0  0  0  0  0  0  0  0  0  0  0
   16.6364   34.5315   37.1415 H   0  0  0  0  0  0  0  0  0  0  0  0
   15.3531   35.7356   37.5138 H   0  0  0  0  0  0  0  0  0  0  0  0
  1  2  2  0
  1  3  1  0
  3  4  1  0
  4  5  1  0
  6  1  1  0
  7  6  1  0
  6  8  1  0
  8  9  1  0
  9 10  1  0
  9 11  2  0
 10 12  1  0
 12 13  1  0
 13 14  2  0
 15 13  1  0
 14 16  1  0
 17 15  2  0
 16 18  2  0
 18 17  1  0
  4 19  2  0
  4 20  1  0
 21 20  1  0
 21 22  1  0
 22 23  1  0
 22 24  1  0
 23 25  1  0
 24 26  1  0
 24 27  1  0
 27 25  1  0
 25 28  1  0
 27 29  1  0
 30 28  1  0
 31 28  1  0
 32 30  2  0
 30 33  1  0
 34 31  2  0
 35 32  1  0
 33 36  2  0
 33 34  1  0
 37 35  2  0
 37 36  1  0
 36 38  1  0
  6 39  1  6
  7 40  1  0
  7 41  1  0
  8 42  1  0
  8 43  1  0
 12 44  1  0
 12 45  1  0
 14 46  1  0
 15 47  1  0
 16 48  1  0
 17 49  1  0
 18 50  1  0
 21 51  1  0
 21 52  1  0
 22 53  1  0
 24 54  1  0
 25 55  1  0
 26 56  1  0
 27 57  1  0
 29 58  1  0
 31 59  1  0
 35 60  1  0
 38 61  1  0
 38 62  1  0
M  CHG  1   5  -1
M  END
>  <EmbedRMS>  (106) 
0.08821785179512522

$$$$

     RDKit          3D

 62 65  0  0  0  0  0  0  0  0999 V2000
   10.2828   43.7755   33.8079 C   0  0  0  0  0  0  0  0  0  0  0  0
   11.4085   43.5914   34.3580 O   0  0  0  0  0  0  0  0  0  0  0  0
    9.3666   42.7319   33.7014 O   0  0  0  0  0  0  0  0  0  0  0  0
    9.8863   41.2345   34.2833 P   0  0  0  0  0  5  0  0  0  0  0  0
   10.3676   41.4692   35.8737 O   0  0  0  0  0  1  0  0  0  0  0  0
    9.9542   45.1113   33.2423 C   0  0  2  0  0  0  0  0  0  0  0  0
   11.0721   46.0272   33.4851 N   0  0  0  0  0  0  0  0  0  0  0  0
    8.6395   45.6446   33.8497 C   0  0  0  0  0  0  0  0  0  0  0  0
    8.2203   46.9281   33.2029 C   0  0  0  0  0  0  0  0  0  0  0  0
    7.7231   46.9071   31.8971 O   0  0  0  0  0  0  0  0  0  0  0  0
    8.3448   48.0169   33.8276 O   0  0  0  0  0  0  0  0  0  0  0  0
    7.3390   48.0878   31.2021 C   0  0  0  0  0  0  0  0  0  0  0  0
    6.8769   47.7199   29.8230 C   0  0  0  0  0  0  0  0  0  0  0  0
    5.5242   47.4271   29.5827 C   0  0  0  0  0  0  0  0  0  0  0  0
    7.8053   47.5970   28.7761 C   0  0  0  0  0  0  0  0  0  0  0  0
    5.1031   47.0459   28.3046 C   0  0  0  0  0  0  0  0  0  0  0  0
    7.3801   47.2153   27.4996 C   0  0  0  0  0  0  0  0  0  0  0  0
    6.0298   46.9424   27.2634 C   0  0  0  0  0  0  0  0  0  0  0  0
    8.8086   40.1917   34.2082 O   0  0  0  0  0  0  0  0  0  0  0  0
   11.2376   40.7914   33.3656 O   0  0  0  0  0  0  0  0  0  0  0  0
   10.9141   40.6852   31.9930 C   0  0  0  0  0  0  0  0  0  0  0  0
   11.5165   39.3774   31.4394 C   0  0  0  0  0  0  0  0  0  0  0  0
   12.7471   39.0855   32.0740 O   0  0  0  0  0  0  0  0  0  0  0  0
   10.6047   38.1868   31.6670 C   0  0  0  0  0  0  0  0  0  0  0  0
   12.9345   37.6791   32.0282 C   0  0  0  0  0  0  0  0  0  0  0  0
    9.6378   38.0918   30.6489 O   0  0  0  0  0  0  0  0  0  0  0  0
   11.5761   37.0129   31.7057 C   0  0  0  0  0  0  0  0  0  0  0  0
   13.4909   37.2177   33.3233 N   0  0  0  0  0  0  0  0  0  0  0  0
   11.6234   36.3371   30.4684 O   0  0  0  0  0  0  0  0  0  0  0  0
   14.4765   36.3272   33.5727 C   0  0  0  0  0  0  0  0  0  0  0  0
   13.1182   37.6316   34.5685 C   0  0  0  0  0  0  0  0  0  0  0  0
   15.2066   35.6138   32.6739 N   0  0  0  0  0  0  0  0  0  0  0  0
   14.6736   36.2276   34.9182 C   0  0  0  0  0  0  0  0  0  0  0  0
   13.8227   37.0457   35.5781 N   0  0  0  0  0  0  0  0  0  0  0  0
   16.1638   34.7593   33.1547 C   0  0  0  0  0  0  0  0  0  0  0  0
   15.6517   35.3492   35.4131 C   0  0  0  0  0  0  0  0  0  0  0  0
   16.3792   34.6309   34.5042 N   0  0  0  0  0  0  0  0  0  0  0  0
   15.9003   35.1934   36.8090 N   0  0  0  0  0  0  0  0  0  0  0  0
    9.8245   44.9834   32.1443 H   0  0  0  0  0  0  0  0  0  0  0  0
   11.0781   46.3206   34.4899 H   0  0  0  0  0  0  0  0  0  0  0  0
   10.9379   46.8881   32.9068 H   0  0  0  0  0  0  0  0  0  0  0  0
    8.7540   45.7908   34.9467 H   0  0  0  0  0  0  0  0  0  0  0  0
    7.8257   44.9036   33.6932 H   0  0  0  0  0  0  0  0  0  0  0  0
    6.5235   48.6012   31.7574 H   0  0  0  0  0  0  0  0  0  0  0  0
    8.2037   48.7846   31.1400 H   0  0  0  0  0  0  0  0  0  0  0  0
    4.7976   47.4933   30.3831 H   0  0  0  0  0  0  0  0  0  0  0  0
    8.8559   47.7954   28.9487 H   0  0  0  0  0  0  0  0  0  0  0  0
    4.0590   46.8266   28.1225 H   0  0  0  0  0  0  0  0  0  0  0  0
    8.0981   47.1271   26.6945 H   0  0  0  0  0  0  0  0  0  0  0  0
    5.7026   46.6457   26.2753 H   0  0  0  0  0  0  0  0  0  0  0  0
    9.8240   40.7211   31.7568 H   0  0  0  0  0  0  0  0  0  0  0  0
   11.3866   41.5416   31.4661 H   0  0  0  0  0  0  0  0  0  0  0  0
   11.6986   39.5012   30.3468 H   0  0  0  0  0  0  0  0  0  0  0  0
   10.1095   38.2771   32.6629 H   0  0  0  0  0  0  0  0  0  0  0  0
   13.6672   37.4546   31.2213 H   0  0  0  0  0  0  0  0  0  0  0  0
    8.9779   37.4158   30.9534 H   0  0  0  0  0  0  0  0  0  0  0  0
   11.2860   36.3041   32.5177 H   0  0  0  0  0  0  0  0  0  0  0  0
   10.8689   35.6919   30.4657 H   0  0  0  0  0  0  0  0  0  0  0  0
   12.3356   38.3587   34.7440 H   0  0  0  0  0  0  0  0  0  0  0  0
   16.7572   34.1786   32.4621 H   0  0  0  0  0  0  0  0  0  0  0  0
   16.6361   34.5315   37.1415 H   0  0  0  0  0  0  0  0  0  0  0  0
   15.3530   35.7357   37.5138 H   0  0  0  0  0  0  0  0  0  0  0  0
  1  2  2  0
  1  3  1  0
  3  4  1  0
  4  5  1  0
  6  1  1  0
  7  6  1  0
  6  8  1  0
  8  9  1  0
  9 10  1  0
  9 11  2  0
 10 12  1  0
 12 13  1  0
 13 14  2  0
 15 13  1  0
 14 16  1  0
 17 15  2  0
 16 18  2  0
 18 17  1  0
  4 19  2  0
  4 20  1  0
 21 20  1  0
 21 22  1  0
 22 23  1  0
 22 24  1  0
 23 25  1  0
 24 26  1  0
 24 27  1  0
 27 25  1  0
 25 28  1  0
 27 29  1  0
 30 28  1  0
 31 28  1  0
 32 30  2  0
 30 33  1  0
 34 31  2  0
 35 32  1  0
 33 36  2  0
 33 34  1  0
 37 35  2  0
 37 36  1  0
 36 38  1  0
  6 39  1  6
  7 40  1  0
  7 41  1  0
  8 42  1  0
  8 43  1  0
 12 44  1  0
 12 45  1  0
 14 46  1  0
 15 47  1  0
 16 48  1  0
 17 49  1  0
 18 50  1  0
 21 51  1  0
 21 52  1  0
 22 53  1  0
 24 54  1  0
 25 55  1  0
 26 56  1  0
 27 57  1  0
 29 58  1  0
 31 59  1  0
 35 60  1  0
 38 61  1  0
 38 62  1  0
M  CHG  1   5  -1
M  END
>  <EmbedRMS>  (107) 
0.08872021210876885

$$$$

     RDKit          3D

 62 65  0  0  0  0  0  0  0  0999 V2000
   10.2819   43.7751   33.8089 C   0  0  0  0  0  0  0  0  0  0  0  0
   11.4049   43.5915   34.3648 O   0  0  0  0  0  0  0  0  0  0  0  0
    9.3697   42.7290   33.6966 O   0  0  0  0  0  0  0  0  0  0  0  0
    9.8866   41.2334   34.2834 P   0  0  0  0  0  5  0  0  0  0  0  0
   10.3662   41.4701   35.8740 O   0  0  0  0  0  1  0  0  0  0  0  0
    9.9470   45.1209   33.2577 C   0  0  2  0  0  0  0  0  0  0  0  0
   11.0786   46.0250   33.4696 N   0  0  0  0  0  0  0  0  0  0  0  0
    8.6913   45.6998   33.9430 C   0  0  0  0  0  0  0  0  0  0  0  0
    7.4511   44.9372   33.5867 C   0  0  0  0  0  0  0  0  0  0  0  0
    7.0025   44.9335   32.2612 O   0  0  0  0  0  0  0  0  0  0  0  0
    6.8326   44.2950   34.4789 O   0  0  0  0  0  0  0  0  0  0  0  0
    5.8411   44.2275   31.8303 C   0  0  0  0  0  0  0  0  0  0  0  0
    4.5963   44.9075   32.3312 C   0  0  0  0  0  0  0  0  0  0  0  0
    4.2492   46.1790   31.8465 C   0  0  0  0  0  0  0  0  0  0  0  0
    3.7857   44.2947   33.3015 C   0  0  0  0  0  0  0  0  0  0  0  0
    3.1029   46.8246   32.3205 C   0  0  0  0  0  0  0  0  0  0  0  0
    2.6402   44.9438   33.7730 C   0  0  0  0  0  0  0  0  0  0  0  0
    2.2987   46.2073   33.2826 C   0  0  0  0  0  0  0  0  0  0  0  0
    8.8084   40.1912   34.2080 O   0  0  0  0  0  0  0  0  0  0  0  0
   11.2380   40.7890   33.3678 O   0  0  0  0  0  0  0  0  0  0  0  0
   10.9159   40.6880   31.9947 C   0  0  0  0  0  0  0  0  0  0  0  0
   11.5262   39.3869   31.4362 C   0  0  0  0  0  0  0  0  0  0  0  0
   12.7493   39.0891   32.0816 O   0  0  0  0  0  0  0  0  0  0  0  0
   10.6123   38.1893   31.6460 C   0  0  0  0  0  0  0  0  0  0  0  0
   12.9374   37.6825   32.0300 C   0  0  0  0  0  0  0  0  0  0  0  0
    9.6150   38.0839   30.6538 O   0  0  0  0  0  0  0  0  0  0  0  0
   11.5793   37.0136   31.7013 C   0  0  0  0  0  0  0  0  0  0  0  0
   13.4906   37.2169   33.3242 N   0  0  0  0  0  0  0  0  0  0  0  0
   11.6216   36.3252   30.4725 O   0  0  0  0  0  0  0  0  0  0  0  0
   14.4763   36.3266   33.5731 C   0  0  0  0  0  0  0  0  0  0  0  0
   13.1181   37.6308   34.5694 C   0  0  0  0  0  0  0  0  0  0  0  0
   15.2065   35.6137   32.6740 N   0  0  0  0  0  0  0  0  0  0  0  0
   14.6735   36.2270   34.9185 C   0  0  0  0  0  0  0  0  0  0  0  0
   13.8229   37.0451   35.5787 N   0  0  0  0  0  0  0  0  0  0  0  0
   16.1639   34.7593   33.1547 C   0  0  0  0  0  0  0  0  0  0  0  0
   15.6519   35.3489   35.4132 C   0  0  0  0  0  0  0  0  0  0  0  0
   16.3795   34.6308   34.5042 N   0  0  0  0  0  0  0  0  0  0  0  0
   15.9006   35.1931   36.8090 N   0  0  0  0  0  0  0  0  0  0  0  0
    9.7608   45.0219   32.1640 H   0  0  0  0  0  0  0  0  0  0  0  0
   11.8854   45.6849   32.8958 H   0  0  0  0  0  0  0  0  0  0  0  0
   10.8354   46.9619   33.0724 H   0  0  0  0  0  0  0  0  0  0  0  0
    8.8322   45.7097   35.0469 H   0  0  0  0  0  0  0  0  0  0  0  0
    8.5411   46.7515   33.6173 H   0  0  0  0  0  0  0  0  0  0  0  0
    5.8950   43.1690   32.1679 H   0  0  0  0  0  0  0  0  0  0  0  0
    5.8235   44.2179   30.7201 H   0  0  0  0  0  0  0  0  0  0  0  0
    4.8673   46.6688   31.1041 H   0  0  0  0  0  0  0  0  0  0  0  0
    4.0402   43.3181   33.6943 H   0  0  0  0  0  0  0  0  0  0  0  0
    2.8390   47.8041   31.9432 H   0  0  0  0  0  0  0  0  0  0  0  0
    2.0181   44.4680   34.5200 H   0  0  0  0  0  0  0  0  0  0  0  0
    1.4122   46.7085   33.6491 H   0  0  0  0  0  0  0  0  0  0  0  0
    9.8257   40.7182   31.7578 H   0  0  0  0  0  0  0  0  0  0  0  0
   11.3834   41.5502   31.4728 H   0  0  0  0  0  0  0  0  0  0  0  0
   11.7292   39.5285   30.3500 H   0  0  0  0  0  0  0  0  0  0  0  0
   10.1141   38.2720   32.6379 H   0  0  0  0  0  0  0  0  0  0  0  0
   13.6726   37.4632   31.2239 H   0  0  0  0  0  0  0  0  0  0  0  0
   10.0534   38.1085   29.7638 H   0  0  0  0  0  0  0  0  0  0  0  0
   11.2645   36.3134   32.5107 H   0  0  0  0  0  0  0  0  0  0  0  0
   12.1547   35.5030   30.6316 H   0  0  0  0  0  0  0  0  0  0  0  0
   12.3361   38.3586   34.7449 H   0  0  0  0  0  0  0  0  0  0  0  0
   16.7574   34.1788   32.4619 H   0  0  0  0  0  0  0  0  0  0  0  0
   15.3533   35.7353   37.5139 H   0  0  0  0  0  0  0  0  0  0  0  0
   16.6366   34.5314   37.1415 H   0  0  0  0  0  0  0  0  0  0  0  0
  1  2  2  0
  1  3  1  0
  3  4  1  0
  4  5  1  0
  6  1  1  0
  7  6  1  0
  6  8  1  0
  8  9  1  0
  9 10  1  0
  9 11  2  0
 10 12  1  0
 12 13  1  0
 13 14  2  0
 15 13  1  0
 14 16  1  0
 17 15  2  0
 16 18  2  0
 18 17  1  0
  4 19  2  0
  4 20  1  0
 21 20  1  0
 21 22  1  0
 22 23  1  0
 22 24  1  0
 23 25  1  0
 24 26  1  0
 24 27  1  0
 27 25  1  0
 25 28  1  0
 27 29  1  0
 30 28  1  0
 31 28  1  0
 32 30  2  0
 30 33  1  0
 34 31  2  0
 35 32  1  0
 33 36  2  0
 33 34  1  0
 37 35  2  0
 37 36  1  0
 36 38  1  0
  6 39  1  6
  7 40  1  0
  7 41  1  0
  8 42  1  0
  8 43  1  0
 12 44  1  0
 12 45  1  0
 14 46  1  0
 15 47  1  0
 16 48  1  0
 17 49  1  0
 18 50  1  0
 21 51  1  0
 21 52  1  0
 22 53  1  0
 24 54  1  0
 25 55  1  0
 26 56  1  0
 27 57  1  0
 29 58  1  0
 31 59  1  0
 35 60  1  0
 38 61  1  0
 38 62  1  0
M  CHG  1   5  -1
M  END
>  <EmbedRMS>  (108) 
0.08824789446724207

$$$$

     RDKit          3D

 62 65  0  0  0  0  0  0  0  0999 V2000
   10.2872   43.7699   33.8110 C   0  0  0  0  0  0  0  0  0  0  0  0
   11.4122   43.5799   34.3595 O   0  0  0  0  0  0  0  0  0  0  0  0
    9.3664   42.7312   33.7043 O   0  0  0  0  0  0  0  0  0  0  0  0
    9.8840   41.2327   34.2844 P   0  0  0  0  0  5  0  0  0  0  0  0
   10.3646   41.4645   35.8748 O   0  0  0  0  0  1  0  0  0  0  0  0
    9.9639   45.1111   33.2456 C   0  0  2  0  0  0  0  0  0  0  0  0
   11.0622   46.0545   33.4741 N   0  0  0  0  0  0  0  0  0  0  0  0
    8.6394   45.6684   33.8039 C   0  0  0  0  0  0  0  0  0  0  0  0
    8.7090   45.9636   35.2730 C   0  0  0  0  0  0  0  0  0  0  0  0
    8.7541   44.9068   36.1893 O   0  0  0  0  0  0  0  0  0  0  0  0
    8.7556   47.1606   35.6679 O   0  0  0  0  0  0  0  0  0  0  0  0
    8.9952   45.0913   37.5823 C   0  0  0  0  0  0  0  0  0  0  0  0
   10.4211   45.5140   37.8118 C   0  0  0  0  0  0  0  0  0  0  0  0
   10.7259   46.8333   38.1866 C   0  0  0  0  0  0  0  0  0  0  0  0
   11.4656   44.6000   37.6005 C   0  0  0  0  0  0  0  0  0  0  0  0
   12.0572   47.2274   38.3544 C   0  0  0  0  0  0  0  0  0  0  0  0
   12.7954   44.9979   37.7677 C   0  0  0  0  0  0  0  0  0  0  0  0
   13.0911   46.3106   38.1449 C   0  0  0  0  0  0  0  0  0  0  0  0
    8.8062   40.1904   34.2073 O   0  0  0  0  0  0  0  0  0  0  0  0
   11.2360   40.7909   33.3674 O   0  0  0  0  0  0  0  0  0  0  0  0
   10.9132   40.6861   31.9948 C   0  0  0  0  0  0  0  0  0  0  0  0
   11.5168   39.3799   31.4411 C   0  0  0  0  0  0  0  0  0  0  0  0
   12.7486   39.0888   32.0764 O   0  0  0  0  0  0  0  0  0  0  0  0
   10.6050   38.1877   31.6660 C   0  0  0  0  0  0  0  0  0  0  0  0
   12.9411   37.6830   32.0278 C   0  0  0  0  0  0  0  0  0  0  0  0
    9.6358   38.0931   30.6502 O   0  0  0  0  0  0  0  0  0  0  0  0
   11.5827   37.0180   31.6937 C   0  0  0  0  0  0  0  0  0  0  0  0
   13.4909   37.2177   33.3240 N   0  0  0  0  0  0  0  0  0  0  0  0
   11.6141   36.3181   30.4675 O   0  0  0  0  0  0  0  0  0  0  0  0
   14.4762   36.3270   33.5733 C   0  0  0  0  0  0  0  0  0  0  0  0
   13.1179   37.6317   34.5689 C   0  0  0  0  0  0  0  0  0  0  0  0
   15.2067   35.6140   32.6744 N   0  0  0  0  0  0  0  0  0  0  0  0
   14.6731   36.2273   34.9186 C   0  0  0  0  0  0  0  0  0  0  0  0
   13.8223   37.0457   35.5785 N   0  0  0  0  0  0  0  0  0  0  0  0
   16.1639   34.7595   33.1550 C   0  0  0  0  0  0  0  0  0  0  0  0
   15.6515   35.3491   35.4134 C   0  0  0  0  0  0  0  0  0  0  0  0
   16.3792   34.6310   34.5045 N   0  0  0  0  0  0  0  0  0  0  0  0
   15.9002   35.1934   36.8093 N   0  0  0  0  0  0  0  0  0  0  0  0
    9.8356   44.9853   32.1480 H   0  0  0  0  0  0  0  0  0  0  0  0
   11.9101   45.7266   32.9558 H   0  0  0  0  0  0  0  0  0  0  0  0
   11.3035   46.0996   34.4919 H   0  0  0  0  0  0  0  0  0  0  0  0
    7.8168   44.9439   33.6207 H   0  0  0  0  0  0  0  0  0  0  0  0
    8.3809   46.5990   33.2525 H   0  0  0  0  0  0  0  0  0  0  0  0
    8.8140   44.1282   38.1047 H   0  0  0  0  0  0  0  0  0  0  0  0
    8.2773   45.8323   37.9973 H   0  0  0  0  0  0  0  0  0  0  0  0
    9.9360   47.5572   38.3432 H   0  0  0  0  0  0  0  0  0  0  0  0
   11.2496   43.5824   37.3033 H   0  0  0  0  0  0  0  0  0  0  0  0
   12.2875   48.2448   38.6431 H   0  0  0  0  0  0  0  0  0  0  0  0
   13.5965   44.2892   37.6023 H   0  0  0  0  0  0  0  0  0  0  0  0
   14.1210   46.6178   38.2730 H   0  0  0  0  0  0  0  0  0  0  0  0
   11.3853   41.5435   31.4692 H   0  0  0  0  0  0  0  0  0  0  0  0
    9.8231   40.7213   31.7580 H   0  0  0  0  0  0  0  0  0  0  0  0
   11.6993   39.5067   30.3489 H   0  0  0  0  0  0  0  0  0  0  0  0
   10.1119   38.2722   32.6632 H   0  0  0  0  0  0  0  0  0  0  0  0
   13.6816   37.4635   31.2269 H   0  0  0  0  0  0  0  0  0  0  0  0
    9.0037   37.3828   30.9348 H   0  0  0  0  0  0  0  0  0  0  0  0
   11.2846   36.3041   32.4928 H   0  0  0  0  0  0  0  0  0  0  0  0
   11.8850   36.9591   29.7589 H   0  0  0  0  0  0  0  0  0  0  0  0
   12.3364   38.3600   34.7442 H   0  0  0  0  0  0  0  0  0  0  0  0
   16.7573   34.1790   32.4623 H   0  0  0  0  0  0  0  0  0  0  0  0
   15.3529   35.7356   37.5141 H   0  0  0  0  0  0  0  0  0  0  0  0
   16.6363   34.5317   37.1418 H   0  0  0  0  0  0  0  0  0  0  0  0
  1  2  2  0
  1  3  1  0
  3  4  1  0
  4  5  1  0
  6  1  1  0
  7  6  1  0
  6  8  1  0
  8  9  1  0
  9 10  1  0
  9 11  2  0
 10 12  1  0
 12 13  1  0
 13 14  2  0
 15 13  1  0
 14 16  1  0
 17 15  2  0
 16 18  2  0
 18 17  1  0
  4 19  2  0
  4 20  1  0
 21 20  1  0
 21 22  1  0
 22 23  1  0
 22 24  1  0
 23 25  1  0
 24 26  1  0
 24 27  1  0
 27 25  1  0
 25 28  1  0
 27 29  1  0
 30 28  1  0
 31 28  1  0
 32 30  2  0
 30 33  1  0
 34 31  2  0
 35 32  1  0
 33 36  2  0
 33 34  1  0
 37 35  2  0
 37 36  1  0
 36 38  1  0
  6 39  1  6
  7 40  1  0
  7 41  1  0
  8 42  1  0
  8 43  1  0
 12 44  1  0
 12 45  1  0
 14 46  1  0
 15 47  1  0
 16 48  1  0
 17 49  1  0
 18 50  1  0
 21 51  1  0
 21 52  1  0
 22 53  1  0
 24 54  1  0
 25 55  1  0
 26 56  1  0
 27 57  1  0
 29 58  1  0
 31 59  1  0
 35 60  1  0
 38 61  1  0
 38 62  1  0
M  CHG  1   5  -1
M  END
>  <EmbedRMS>  (109) 
0.0887447859619062

$$$$

     RDKit          3D

 62 65  0  0  0  0  0  0  0  0999 V2000
   10.2808   43.7760   33.8098 C   0  0  0  0  0  0  0  0  0  0  0  0
   11.4069   43.5917   34.3592 O   0  0  0  0  0  0  0  0  0  0  0  0
    9.3683   42.7299   33.6996 O   0  0  0  0  0  0  0  0  0  0  0  0
    9.8870   41.2337   34.2833 P   0  0  0  0  0  5  0  0  0  0  0  0
   10.3676   41.4694   35.8737 O   0  0  0  0  0  1  0  0  0  0  0  0
    9.9520   45.1161   33.2458 C   0  0  2  0  0  0  0  0  0  0  0  0
   11.0748   46.0258   33.4810 N   0  0  0  0  0  0  0  0  0  0  0  0
    8.6548   45.6912   33.8567 C   0  0  0  0  0  0  0  0  0  0  0  0
    7.4404   44.9339   33.4121 C   0  0  0  0  0  0  0  0  0  0  0  0
    7.0685   44.9604   32.0633 O   0  0  0  0  0  0  0  0  0  0  0  0
    6.7749   44.2682   34.2518 O   0  0  0  0  0  0  0  0  0  0  0  0
    5.9362   44.2623   31.5502 C   0  0  0  0  0  0  0  0  0  0  0  0
    4.6623   44.9270   31.9956 C   0  0  0  0  0  0  0  0  0  0  0  0
    3.7999   44.2887   32.9027 C   0  0  0  0  0  0  0  0  0  0  0  0
    4.3387   46.2092   31.5231 C   0  0  0  0  0  0  0  0  0  0  0  0
    2.6270   44.9234   33.3238 C   0  0  0  0  0  0  0  0  0  0  0  0
    3.1649   46.8404   31.9465 C   0  0  0  0  0  0  0  0  0  0  0  0
    2.3094   46.1978   32.8457 C   0  0  0  0  0  0  0  0  0  0  0  0
    8.8088   40.1914   34.2081 O   0  0  0  0  0  0  0  0  0  0  0  0
   11.2381   40.7904   33.3657 O   0  0  0  0  0  0  0  0  0  0  0  0
   10.9144   40.6850   31.9931 C   0  0  0  0  0  0  0  0  0  0  0  0
   11.5166   39.3773   31.4392 C   0  0  0  0  0  0  0  0  0  0  0  0
   12.7472   39.0854   32.0738 O   0  0  0  0  0  0  0  0  0  0  0  0
   10.6047   38.1868   31.6669 C   0  0  0  0  0  0  0  0  0  0  0  0
   12.9345   37.6790   32.0282 C   0  0  0  0  0  0  0  0  0  0  0  0
    9.6378   38.0918   30.6489 O   0  0  0  0  0  0  0  0  0  0  0  0
   11.5760   37.0129   31.7056 C   0  0  0  0  0  0  0  0  0  0  0  0
   13.4909   37.2177   33.3233 N   0  0  0  0  0  0  0  0  0  0  0  0
   11.6233   36.3371   30.4684 O   0  0  0  0  0  0  0  0  0  0  0  0
   14.4765   36.3272   33.5727 C   0  0  0  0  0  0  0  0  0  0  0  0
   13.1182   37.6315   34.5685 C   0  0  0  0  0  0  0  0  0  0  0  0
   15.2066   35.6137   32.6739 N   0  0  0  0  0  0  0  0  0  0  0  0
   14.6735   36.2276   34.9182 C   0  0  0  0  0  0  0  0  0  0  0  0
   13.8227   37.0457   35.5781 N   0  0  0  0  0  0  0  0  0  0  0  0
   16.1638   34.7593   33.1548 C   0  0  0  0  0  0  0  0  0  0  0  0
   15.6517   35.3492   35.4131 C   0  0  0  0  0  0  0  0  0  0  0  0
   16.3792   34.6309   34.5043 N   0  0  0  0  0  0  0  0  0  0  0  0
   15.9002   35.1934   36.8090 N   0  0  0  0  0  0  0  0  0  0  0  0
    9.8219   45.0004   32.1466 H   0  0  0  0  0  0  0  0  0  0  0  0
   11.1126   46.2830   34.4952 H   0  0  0  0  0  0  0  0  0  0  0  0
   10.9081   46.9081   32.9441 H   0  0  0  0  0  0  0  0  0  0  0  0
    8.5312   46.7471   33.5331 H   0  0  0  0  0  0  0  0  0  0  0  0
    8.7221   45.6874   34.9675 H   0  0  0  0  0  0  0  0  0  0  0  0
    5.9747   43.1961   31.8647 H   0  0  0  0  0  0  0  0  0  0  0  0
    5.9817   44.2796   30.4408 H   0  0  0  0  0  0  0  0  0  0  0  0
    4.0351   43.3033   33.2855 H   0  0  0  0  0  0  0  0  0  0  0  0
    4.9964   46.7186   30.8294 H   0  0  0  0  0  0  0  0  0  0  0  0
    1.9651   44.4279   34.0223 H   0  0  0  0  0  0  0  0  0  0  0  0
    2.9193   47.8283   31.5788 H   0  0  0  0  0  0  0  0  0  0  0  0
    1.4016   46.6878   33.1732 H   0  0  0  0  0  0  0  0  0  0  0  0
    9.8243   40.7213   31.7569 H   0  0  0  0  0  0  0  0  0  0  0  0
   11.3871   41.5415   31.4666 H   0  0  0  0  0  0  0  0  0  0  0  0
   11.6986   39.5012   30.3466 H   0  0  0  0  0  0  0  0  0  0  0  0
   10.1096   38.2772   32.6629 H   0  0  0  0  0  0  0  0  0  0  0  0
   13.6672   37.4544   31.2212 H   0  0  0  0  0  0  0  0  0  0  0  0
    8.9777   37.4160   30.9535 H   0  0  0  0  0  0  0  0  0  0  0  0
   11.2860   36.3041   32.5177 H   0  0  0  0  0  0  0  0  0  0  0  0
   10.8688   35.6919   30.4657 H   0  0  0  0  0  0  0  0  0  0  0  0
   12.3355   38.3587   34.7439 H   0  0  0  0  0  0  0  0  0  0  0  0
   16.7572   34.1786   32.4621 H   0  0  0  0  0  0  0  0  0  0  0  0
   16.6361   34.5315   37.1415 H   0  0  0  0  0  0  0  0  0  0  0  0
   15.3530   35.7358   37.5138 H   0  0  0  0  0  0  0  0  0  0  0  0
  1  2  2  0
  1  3  1  0
  3  4  1  0
  4  5  1  0
  6  1  1  0
  7  6  1  0
  6  8  1  0
  8  9  1  0
  9 10  1  0
  9 11  2  0
 10 12  1  0
 12 13  1  0
 13 14  2  0
 15 13  1  0
 14 16  1  0
 17 15  2  0
 16 18  2  0
 18 17  1  0
  4 19  2  0
  4 20  1  0
 21 20  1  0
 21 22  1  0
 22 23  1  0
 22 24  1  0
 23 25  1  0
 24 26  1  0
 24 27  1  0
 27 25  1  0
 25 28  1  0
 27 29  1  0
 30 28  1  0
 31 28  1  0
 32 30  2  0
 30 33  1  0
 34 31  2  0
 35 32  1  0
 33 36  2  0
 33 34  1  0
 37 35  2  0
 37 36  1  0
 36 38  1  0
  6 39  1  6
  7 40  1  0
  7 41  1  0
  8 42  1  0
  8 43  1  0
 12 44  1  0
 12 45  1  0
 14 46  1  0
 15 47  1  0
 16 48  1  0
 17 49  1  0
 18 50  1  0
 21 51  1  0
 21 52  1  0
 22 53  1  0
 24 54  1  0
 25 55  1  0
 26 56  1  0
 27 57  1  0
 29 58  1  0
 31 59  1  0
 35 60  1  0
 38 61  1  0
 38 62  1  0
M  CHG  1   5  -1
M  END
>  <EmbedRMS>  (110) 
0.08896323812700185

$$$$

     RDKit          3D

 62 65  0  0  0  0  0  0  0  0999 V2000
   10.2862   43.7718   33.8035 C   0  0  0  0  0  0  0  0  0  0  0  0
   11.4107   43.5876   34.3556 O   0  0  0  0  0  0  0  0  0  0  0  0
    9.3670   42.7310   33.7006 O   0  0  0  0  0  0  0  0  0  0  0  0
    9.8854   41.2340   34.2846 P   0  0  0  0  0  5  0  0  0  0  0  0
   10.3684   41.4689   35.8736 O   0  0  0  0  0  1  0  0  0  0  0  0
    9.9609   45.1097   33.2377 C   0  0  2  0  0  0  0  0  0  0  0  0
   11.0639   46.0385   33.4930 N   0  0  0  0  0  0  0  0  0  0  0  0
    8.6139   45.6553   33.7648 C   0  0  0  0  0  0  0  0  0  0  0  0
    8.5716   45.7743   35.2603 C   0  0  0  0  0  0  0  0  0  0  0  0
    8.4742   44.6162   36.0357 O   0  0  0  0  0  0  0  0  0  0  0  0
    8.6408   46.9101   35.8043 O   0  0  0  0  0  0  0  0  0  0  0  0
    8.4087   44.6363   37.4567 C   0  0  0  0  0  0  0  0  0  0  0  0
    8.4118   43.2248   37.9683 C   0  0  0  0  0  0  0  0  0  0  0  0
    9.4727   42.7489   38.7577 C   0  0  0  0  0  0  0  0  0  0  0  0
    7.3610   42.3560   37.6309 C   0  0  0  0  0  0  0  0  0  0  0  0
    9.4785   41.4230   39.2027 C   0  0  0  0  0  0  0  0  0  0  0  0
    7.3723   41.0304   38.0757 C   0  0  0  0  0  0  0  0  0  0  0  0
    8.4301   40.5643   38.8610 C   0  0  0  0  0  0  0  0  0  0  0  0
    8.8076   40.1914   34.2101 O   0  0  0  0  0  0  0  0  0  0  0  0
   11.2377   40.7896   33.3689 O   0  0  0  0  0  0  0  0  0  0  0  0
   10.9187   40.6893   31.9952 C   0  0  0  0  0  0  0  0  0  0  0  0
   11.5168   39.3801   31.4399 C   0  0  0  0  0  0  0  0  0  0  0  0
   12.7476   39.0862   32.0734 O   0  0  0  0  0  0  0  0  0  0  0  0
   10.6030   38.1890   31.6667 C   0  0  0  0  0  0  0  0  0  0  0  0
   12.9334   37.6798   32.0280 C   0  0  0  0  0  0  0  0  0  0  0  0
    9.6396   38.0776   30.6457 O   0  0  0  0  0  0  0  0  0  0  0  0
   11.5739   37.0154   31.7058 C   0  0  0  0  0  0  0  0  0  0  0  0
   13.4902   37.2179   33.3231 N   0  0  0  0  0  0  0  0  0  0  0  0
   11.6211   36.3376   30.4695 O   0  0  0  0  0  0  0  0  0  0  0  0
   14.4761   36.3274   33.5725 C   0  0  0  0  0  0  0  0  0  0  0  0
   13.1178   37.6317   34.5685 C   0  0  0  0  0  0  0  0  0  0  0  0
   15.2063   35.6139   32.6737 N   0  0  0  0  0  0  0  0  0  0  0  0
   14.6733   36.2278   34.9180 C   0  0  0  0  0  0  0  0  0  0  0  0
   13.8225   37.0459   35.5780 N   0  0  0  0  0  0  0  0  0  0  0  0
   16.1636   34.7595   33.1546 C   0  0  0  0  0  0  0  0  0  0  0  0
   15.6515   35.3494   35.4129 C   0  0  0  0  0  0  0  0  0  0  0  0
   16.3790   34.6311   34.5041 N   0  0  0  0  0  0  0  0  0  0  0  0
   15.9001   35.1936   36.8088 N   0  0  0  0  0  0  0  0  0  0  0  0
    9.8663   44.9821   32.1369 H   0  0  0  0  0  0  0  0  0  0  0  0
   11.1215   46.2529   34.5154 H   0  0  0  0  0  0  0  0  0  0  0  0
   10.8643   46.9383   32.9982 H   0  0  0  0  0  0  0  0  0  0  0  0
    7.7923   44.9798   33.4421 H   0  0  0  0  0  0  0  0  0  0  0  0
    8.4141   46.6477   33.3049 H   0  0  0  0  0  0  0  0  0  0  0  0
    7.4741   45.1434   37.7798 H   0  0  0  0  0  0  0  0  0  0  0  0
    9.2744   45.2055   37.8613 H   0  0  0  0  0  0  0  0  0  0  0  0
   10.2969   43.3989   39.0234 H   0  0  0  0  0  0  0  0  0  0  0  0
    6.5389   42.7041   37.0176 H   0  0  0  0  0  0  0  0  0  0  0  0
   10.2985   41.0599   39.8087 H   0  0  0  0  0  0  0  0  0  0  0  0
    6.5622   40.3639   37.8094 H   0  0  0  0  0  0  0  0  0  0  0  0
    8.4382   39.5376   39.2035 H   0  0  0  0  0  0  0  0  0  0  0  0
   11.4002   41.5438   31.4735 H   0  0  0  0  0  0  0  0  0  0  0  0
    9.8308   40.7392   31.7554 H   0  0  0  0  0  0  0  0  0  0  0  0
   11.6979   39.5045   30.3472 H   0  0  0  0  0  0  0  0  0  0  0  0
   10.1088   38.2630   32.6650 H   0  0  0  0  0  0  0  0  0  0  0  0
   13.6655   37.4543   31.2208 H   0  0  0  0  0  0  0  0  0  0  0  0
    8.8962   38.6895   30.8855 H   0  0  0  0  0  0  0  0  0  0  0  0
   11.2846   36.3060   32.5175 H   0  0  0  0  0  0  0  0  0  0  0  0
   10.8524   35.7094   30.4590 H   0  0  0  0  0  0  0  0  0  0  0  0
   12.3352   38.3588   34.7441 H   0  0  0  0  0  0  0  0  0  0  0  0
   16.7569   34.1788   32.4619 H   0  0  0  0  0  0  0  0  0  0  0  0
   16.6359   34.5317   37.1413 H   0  0  0  0  0  0  0  0  0  0  0  0
   15.3529   35.7359   37.5136 H   0  0  0  0  0  0  0  0  0  0  0  0
  1  2  2  0
  1  3  1  0
  3  4  1  0
  4  5  1  0
  6  1  1  0
  7  6  1  0
  6  8  1  0
  8  9  1  0
  9 10  1  0
  9 11  2  0
 10 12  1  0
 12 13  1  0
 13 14  2  0
 15 13  1  0
 14 16  1  0
 17 15  2  0
 16 18  2  0
 18 17  1  0
  4 19  2  0
  4 20  1  0
 21 20  1  0
 21 22  1  0
 22 23  1  0
 22 24  1  0
 23 25  1  0
 24 26  1  0
 24 27  1  0
 27 25  1  0
 25 28  1  0
 27 29  1  0
 30 28  1  0
 31 28  1  0
 32 30  2  0
 30 33  1  0
 34 31  2  0
 35 32  1  0
 33 36  2  0
 33 34  1  0
 37 35  2  0
 37 36  1  0
 36 38  1  0
  6 39  1  6
  7 40  1  0
  7 41  1  0
  8 42  1  0
  8 43  1  0
 12 44  1  0
 12 45  1  0
 14 46  1  0
 15 47  1  0
 16 48  1  0
 17 49  1  0
 18 50  1  0
 21 51  1  0
 21 52  1  0
 22 53  1  0
 24 54  1  0
 25 55  1  0
 26 56  1  0
 27 57  1  0
 29 58  1  0
 31 59  1  0
 35 60  1  0
 38 61  1  0
 38 62  1  0
M  CHG  1   5  -1
M  END
>  <EmbedRMS>  (111) 
0.08929886280266713

$$$$

     RDKit          3D

 62 65  0  0  0  0  0  0  0  0999 V2000
   10.2812   43.7750   33.8076 C   0  0  0  0  0  0  0  0  0  0  0  0
   11.4039   43.5911   34.3641 O   0  0  0  0  0  0  0  0  0  0  0  0
    9.3698   42.7285   33.6943 O   0  0  0  0  0  0  0  0  0  0  0  0
    9.8871   41.2333   34.2828 P   0  0  0  0  0  5  0  0  0  0  0  0
   10.3651   41.4708   35.8738 O   0  0  0  0  0  1  0  0  0  0  0  0
    9.9454   45.1232   33.2616 C   0  0  2  0  0  0  0  0  0  0  0  0
   11.0810   46.0236   33.4688 N   0  0  0  0  0  0  0  0  0  0  0  0
    8.6964   45.7025   33.9598 C   0  0  0  0  0  0  0  0  0  0  0  0
    7.4380   45.0146   33.5257 C   0  0  0  0  0  0  0  0  0  0  0  0
    6.8965   44.0016   34.3215 O   0  0  0  0  0  0  0  0  0  0  0  0
    6.8942   45.3349   32.4335 O   0  0  0  0  0  0  0  0  0  0  0  0
    5.7087   43.3004   33.9712 C   0  0  0  0  0  0  0  0  0  0  0  0
    5.4614   42.2145   34.9768 C   0  0  0  0  0  0  0  0  0  0  0  0
    5.0371   42.5433   36.2744 C   0  0  0  0  0  0  0  0  0  0  0  0
    5.6960   40.8687   34.6486 C   0  0  0  0  0  0  0  0  0  0  0  0
    4.8388   41.5380   37.2262 C   0  0  0  0  0  0  0  0  0  0  0  0
    5.4980   39.8666   35.6036 C   0  0  0  0  0  0  0  0  0  0  0  0
    5.0687   40.2008   36.8910 C   0  0  0  0  0  0  0  0  0  0  0  0
    8.8116   40.1889   34.2071 O   0  0  0  0  0  0  0  0  0  0  0  0
   11.2396   40.7897   33.3683 O   0  0  0  0  0  0  0  0  0  0  0  0
   10.9195   40.6886   31.9947 C   0  0  0  0  0  0  0  0  0  0  0  0
   11.5182   39.3798   31.4396 C   0  0  0  0  0  0  0  0  0  0  0  0
   12.7486   39.0873   32.0747 O   0  0  0  0  0  0  0  0  0  0  0  0
   10.6053   38.1875   31.6658 C   0  0  0  0  0  0  0  0  0  0  0  0
   12.9360   37.6814   32.0288 C   0  0  0  0  0  0  0  0  0  0  0  0
    9.6420   38.0740   30.6449 O   0  0  0  0  0  0  0  0  0  0  0  0
   11.5764   37.0158   31.7047 C   0  0  0  0  0  0  0  0  0  0  0  0
   13.4908   37.2182   33.3237 N   0  0  0  0  0  0  0  0  0  0  0  0
   11.6100   36.3399   30.4680 O   0  0  0  0  0  0  0  0  0  0  0  0
   14.4762   36.3273   33.5728 C   0  0  0  0  0  0  0  0  0  0  0  0
   13.1180   37.6317   34.5689 C   0  0  0  0  0  0  0  0  0  0  0  0
   15.2063   35.6140   32.6739 N   0  0  0  0  0  0  0  0  0  0  0  0
   14.6733   36.2275   34.9182 C   0  0  0  0  0  0  0  0  0  0  0  0
   13.8225   37.0457   35.5783 N   0  0  0  0  0  0  0  0  0  0  0  0
   16.1635   34.7595   33.1546 C   0  0  0  0  0  0  0  0  0  0  0  0
   15.6515   35.3492   35.4130 C   0  0  0  0  0  0  0  0  0  0  0  0
   16.3791   34.6310   34.5041 N   0  0  0  0  0  0  0  0  0  0  0  0
   15.9002   35.1934   36.8089 N   0  0  0  0  0  0  0  0  0  0  0  0
    9.7518   45.0287   32.1686 H   0  0  0  0  0  0  0  0  0  0  0  0
   10.8421   46.9594   33.0665 H   0  0  0  0  0  0  0  0  0  0  0  0
   11.8861   45.6778   32.8960 H   0  0  0  0  0  0  0  0  0  0  0  0
    8.5955   46.7826   33.7156 H   0  0  0  0  0  0  0  0  0  0  0  0
    8.8037   45.6246   35.0642 H   0  0  0  0  0  0  0  0  0  0  0  0
    5.8144   42.8715   32.9503 H   0  0  0  0  0  0  0  0  0  0  0  0
    4.8484   44.0045   33.9634 H   0  0  0  0  0  0  0  0  0  0  0  0
    4.8641   43.5769   36.5481 H   0  0  0  0  0  0  0  0  0  0  0  0
    6.0347   40.5949   33.6571 H   0  0  0  0  0  0  0  0  0  0  0  0
    4.5103   41.7961   38.2247 H   0  0  0  0  0  0  0  0  0  0  0  0
    5.6803   38.8313   35.3463 H   0  0  0  0  0  0  0  0  0  0  0  0
    4.9168   39.4240   37.6293 H   0  0  0  0  0  0  0  0  0  0  0  0
    9.8313   40.7374   31.7551 H   0  0  0  0  0  0  0  0  0  0  0  0
   11.3998   41.5433   31.4722 H   0  0  0  0  0  0  0  0  0  0  0  0
   11.7002   39.5043   30.3471 H   0  0  0  0  0  0  0  0  0  0  0  0
   10.1106   38.2621   32.6639 H   0  0  0  0  0  0  0  0  0  0  0  0
   13.6695   37.4582   31.2222 H   0  0  0  0  0  0  0  0  0  0  0  0
    8.8993   38.6876   30.8826 H   0  0  0  0  0  0  0  0  0  0  0  0
   11.2688   36.3068   32.5092 H   0  0  0  0  0  0  0  0  0  0  0  0
   12.1422   35.5150   30.6153 H   0  0  0  0  0  0  0  0  0  0  0  0
   12.3357   38.3592   34.7444 H   0  0  0  0  0  0  0  0  0  0  0  0
   16.7569   34.1789   32.4618 H   0  0  0  0  0  0  0  0  0  0  0  0
   15.3530   35.7357   37.5138 H   0  0  0  0  0  0  0  0  0  0  0  0
   16.6361   34.5315   37.1414 H   0  0  0  0  0  0  0  0  0  0  0  0
  1  2  2  0
  1  3  1  0
  3  4  1  0
  4  5  1  0
  6  1  1  0
  7  6  1  0
  6  8  1  0
  8  9  1  0
  9 10  1  0
  9 11  2  0
 10 12  1  0
 12 13  1  0
 13 14  2  0
 15 13  1  0
 14 16  1  0
 17 15  2  0
 16 18  2  0
 18 17  1  0
  4 19  2  0
  4 20  1  0
 21 20  1  0
 21 22  1  0
 22 23  1  0
 22 24  1  0
 23 25  1  0
 24 26  1  0
 24 27  1  0
 27 25  1  0
 25 28  1  0
 27 29  1  0
 30 28  1  0
 31 28  1  0
 32 30  2  0
 30 33  1  0
 34 31  2  0
 35 32  1  0
 33 36  2  0
 33 34  1  0
 37 35  2  0
 37 36  1  0
 36 38  1  0
  6 39  1  6
  7 40  1  0
  7 41  1  0
  8 42  1  0
  8 43  1  0
 12 44  1  0
 12 45  1  0
 14 46  1  0
 15 47  1  0
 16 48  1  0
 17 49  1  0
 18 50  1  0
 21 51  1  0
 21 52  1  0
 22 53  1  0
 24 54  1  0
 25 55  1  0
 26 56  1  0
 27 57  1  0
 29 58  1  0
 31 59  1  0
 35 60  1  0
 38 61  1  0
 38 62  1  0
M  CHG  1   5  -1
M  END
>  <EmbedRMS>  (112) 
0.08956378825331486

$$$$

     RDKit          3D

 62 65  0  0  0  0  0  0  0  0999 V2000
   10.2861   43.7720   33.8046 C   0  0  0  0  0  0  0  0  0  0  0  0
   11.4086   43.5884   34.3610 O   0  0  0  0  0  0  0  0  0  0  0  0
    9.3676   42.7309   33.6991 O   0  0  0  0  0  0  0  0  0  0  0  0
    9.8854   41.2341   34.2839 P   0  0  0  0  0  5  0  0  0  0  0  0
   10.3657   41.4701   35.8744 O   0  0  0  0  0  1  0  0  0  0  0  0
    9.9530   45.1148   33.2535 C   0  0  2  0  0  0  0  0  0  0  0  0
   11.0713   46.0333   33.4765 N   0  0  0  0  0  0  0  0  0  0  0  0
    8.6604   45.6660   33.8890 C   0  0  0  0  0  0  0  0  0  0  0  0
    8.7942   45.8697   35.3690 C   0  0  0  0  0  0  0  0  0  0  0  0
    9.3445   47.0621   35.8523 O   0  0  0  0  0  0  0  0  0  0  0  0
    8.4465   44.9518   36.1613 O   0  0  0  0  0  0  0  0  0  0  0  0
    9.5086   47.3418   37.2407 C   0  0  0  0  0  0  0  0  0  0  0  0
    8.1745   47.6012   37.8855 C   0  0  0  0  0  0  0  0  0  0  0  0
    7.4431   48.7504   37.5444 C   0  0  0  0  0  0  0  0  0  0  0  0
    7.6353   46.6897   38.8090 C   0  0  0  0  0  0  0  0  0  0  0  0
    6.1937   48.9883   38.1258 C   0  0  0  0  0  0  0  0  0  0  0  0
    6.3854   46.9313   39.3879 C   0  0  0  0  0  0  0  0  0  0  0  0
    5.6655   48.0799   39.0473 C   0  0  0  0  0  0  0  0  0  0  0  0
    8.8077   40.1913   34.2086 O   0  0  0  0  0  0  0  0  0  0  0  0
   11.2373   40.7896   33.3684 O   0  0  0  0  0  0  0  0  0  0  0  0
   10.9162   40.6889   31.9951 C   0  0  0  0  0  0  0  0  0  0  0  0
   11.5252   39.3872   31.4364 C   0  0  0  0  0  0  0  0  0  0  0  0
   12.7487   39.0879   32.0802 O   0  0  0  0  0  0  0  0  0  0  0  0
   10.6101   38.1909   31.6470 C   0  0  0  0  0  0  0  0  0  0  0  0
   12.9348   37.6807   32.0292 C   0  0  0  0  0  0  0  0  0  0  0  0
    9.6126   38.0874   30.6547 O   0  0  0  0  0  0  0  0  0  0  0  0
   11.5767   37.0133   31.7025 C   0  0  0  0  0  0  0  0  0  0  0  0
   13.4902   37.2165   33.3236 N   0  0  0  0  0  0  0  0  0  0  0  0
   11.6321   36.3231   30.4741 O   0  0  0  0  0  0  0  0  0  0  0  0
   14.4763   36.3266   33.5727 C   0  0  0  0  0  0  0  0  0  0  0  0
   13.1179   37.6307   34.5689 C   0  0  0  0  0  0  0  0  0  0  0  0
   15.2065   35.6135   32.6739 N   0  0  0  0  0  0  0  0  0  0  0  0
   14.6736   36.2272   34.9182 C   0  0  0  0  0  0  0  0  0  0  0  0
   13.8228   37.0453   35.5783 N   0  0  0  0  0  0  0  0  0  0  0  0
   16.1640   34.7592   33.1547 C   0  0  0  0  0  0  0  0  0  0  0  0
   15.6518   35.3491   35.4131 C   0  0  0  0  0  0  0  0  0  0  0  0
   16.3795   34.6309   34.5042 N   0  0  0  0  0  0  0  0  0  0  0  0
   15.9004   35.1933   36.8089 N   0  0  0  0  0  0  0  0  0  0  0  0
    9.7832   45.0052   32.1587 H   0  0  0  0  0  0  0  0  0  0  0  0
   10.8100   46.9716   33.0947 H   0  0  0  0  0  0  0  0  0  0  0  0
   11.8826   45.7124   32.8983 H   0  0  0  0  0  0  0  0  0  0  0  0
    7.8145   44.9736   33.6834 H   0  0  0  0  0  0  0  0  0  0  0  0
    8.4025   46.6377   33.4154 H   0  0  0  0  0  0  0  0  0  0  0  0
   10.1420   48.2476   37.3475 H   0  0  0  0  0  0  0  0  0  0  0  0
   10.0472   46.5035   37.7350 H   0  0  0  0  0  0  0  0  0  0  0  0
    7.8403   49.4590   36.8280 H   0  0  0  0  0  0  0  0  0  0  0  0
    8.1792   45.7930   39.0788 H   0  0  0  0  0  0  0  0  0  0  0  0
    5.6342   49.8761   37.8605 H   0  0  0  0  0  0  0  0  0  0  0  0
    5.9741   46.2270   40.0994 H   0  0  0  0  0  0  0  0  0  0  0  0
    4.6980   48.2649   39.4958 H   0  0  0  0  0  0  0  0  0  0  0  0
   11.3850   41.5506   31.4736 H   0  0  0  0  0  0  0  0  0  0  0  0
    9.8262   40.7205   31.7576 H   0  0  0  0  0  0  0  0  0  0  0  0
   11.7273   39.5286   30.3501 H   0  0  0  0  0  0  0  0  0  0  0  0
   10.1123   38.2732   32.6390 H   0  0  0  0  0  0  0  0  0  0  0  0
   13.6686   37.4590   31.2224 H   0  0  0  0  0  0  0  0  0  0  0  0
   10.0514   38.1109   29.7648 H   0  0  0  0  0  0  0  0  0  0  0  0
   11.2801   36.3128   32.5195 H   0  0  0  0  0  0  0  0  0  0  0  0
   10.8625   35.6960   30.4645 H   0  0  0  0  0  0  0  0  0  0  0  0
   12.3356   38.3581   34.7444 H   0  0  0  0  0  0  0  0  0  0  0  0
   16.7575   34.1787   32.4620 H   0  0  0  0  0  0  0  0  0  0  0  0
   15.3531   35.7356   37.5138 H   0  0  0  0  0  0  0  0  0  0  0  0
   16.6364   34.5315   37.1415 H   0  0  0  0  0  0  0  0  0  0  0  0
  1  2  2  0
  1  3  1  0
  3  4  1  0
  4  5  1  0
  6  1  1  0
  7  6  1  0
  6  8  1  0
  8  9  1  0
  9 10  1  0
  9 11  2  0
 10 12  1  0
 12 13  1  0
 13 14  2  0
 15 13  1  0
 14 16  1  0
 17 15  2  0
 16 18  2  0
 18 17  1  0
  4 19  2  0
  4 20  1  0
 21 20  1  0
 21 22  1  0
 22 23  1  0
 22 24  1  0
 23 25  1  0
 24 26  1  0
 24 27  1  0
 27 25  1  0
 25 28  1  0
 27 29  1  0
 30 28  1  0
 31 28  1  0
 32 30  2  0
 30 33  1  0
 34 31  2  0
 35 32  1  0
 33 36  2  0
 33 34  1  0
 37 35  2  0
 37 36  1  0
 36 38  1  0
  6 39  1  6
  7 40  1  0
  7 41  1  0
  8 42  1  0
  8 43  1  0
 12 44  1  0
 12 45  1  0
 14 46  1  0
 15 47  1  0
 16 48  1  0
 17 49  1  0
 18 50  1  0
 21 51  1  0
 21 52  1  0
 22 53  1  0
 24 54  1  0
 25 55  1  0
 26 56  1  0
 27 57  1  0
 29 58  1  0
 31 59  1  0
 35 60  1  0
 38 61  1  0
 38 62  1  0
M  CHG  1   5  -1
M  END
>  <EmbedRMS>  (113) 
0.08816197789118767

$$$$

     RDKit          3D

 62 65  0  0  0  0  0  0  0  0999 V2000
   10.2860   43.7720   33.8046 C   0  0  0  0  0  0  0  0  0  0  0  0
   11.4085   43.5884   34.3610 O   0  0  0  0  0  0  0  0  0  0  0  0
    9.3674   42.7309   33.6991 O   0  0  0  0  0  0  0  0  0  0  0  0
    9.8856   41.2340   34.2831 P   0  0  0  0  0  5  0  0  0  0  0  0
   10.3666   41.4697   35.8735 O   0  0  0  0  0  1  0  0  0  0  0  0
    9.9530   45.1149   33.2535 C   0  0  2  0  0  0  0  0  0  0  0  0
   11.0713   46.0333   33.4765 N   0  0  0  0  0  0  0  0  0  0  0  0
    8.6603   45.6660   33.8889 C   0  0  0  0  0  0  0  0  0  0  0  0
    8.7943   45.8703   35.3689 C   0  0  0  0  0  0  0  0  0  0  0  0
    9.3435   47.0634   35.8517 O   0  0  0  0  0  0  0  0  0  0  0  0
    8.4477   44.9523   36.1615 O   0  0  0  0  0  0  0  0  0  0  0  0
    9.5076   47.3437   37.2400 C   0  0  0  0  0  0  0  0  0  0  0  0
    8.1734   47.6016   37.8852 C   0  0  0  0  0  0  0  0  0  0  0  0
    7.4405   48.7500   37.5440 C   0  0  0  0  0  0  0  0  0  0  0  0
    7.6357   46.6899   38.8091 C   0  0  0  0  0  0  0  0  0  0  0  0
    6.1911   48.9867   38.1259 C   0  0  0  0  0  0  0  0  0  0  0  0
    6.3857   46.9302   39.3885 C   0  0  0  0  0  0  0  0  0  0  0  0
    5.6644   48.0779   39.0478 C   0  0  0  0  0  0  0  0  0  0  0  0
    8.8077   40.1914   34.2082 O   0  0  0  0  0  0  0  0  0  0  0  0
   11.2369   40.7903   33.3659 O   0  0  0  0  0  0  0  0  0  0  0  0
   10.9136   40.6842   31.9931 C   0  0  0  0  0  0  0  0  0  0  0  0
   11.5175   39.3773   31.4394 C   0  0  0  0  0  0  0  0  0  0  0  0
   12.7477   39.0869   32.0756 O   0  0  0  0  0  0  0  0  0  0  0  0
   10.6069   38.1851   31.6657 C   0  0  0  0  0  0  0  0  0  0  0  0
   12.9372   37.6811   32.0290 C   0  0  0  0  0  0  0  0  0  0  0  0
    9.6404   38.0882   30.6476 O   0  0  0  0  0  0  0  0  0  0  0  0
   11.5789   37.0134   31.7045 C   0  0  0  0  0  0  0  0  0  0  0  0
   13.4915   37.2182   33.3239 N   0  0  0  0  0  0  0  0  0  0  0  0
   11.6125   36.3389   30.4673 O   0  0  0  0  0  0  0  0  0  0  0  0
   14.4766   36.3272   33.5730 C   0  0  0  0  0  0  0  0  0  0  0  0
   13.1184   37.6317   34.5690 C   0  0  0  0  0  0  0  0  0  0  0  0
   15.2066   35.6139   32.6740 N   0  0  0  0  0  0  0  0  0  0  0  0
   14.6735   36.2273   34.9184 C   0  0  0  0  0  0  0  0  0  0  0  0
   13.8227   37.0455   35.5785 N   0  0  0  0  0  0  0  0  0  0  0  0
   16.1638   34.7593   33.1548 C   0  0  0  0  0  0  0  0  0  0  0  0
   15.6517   35.3491   35.4132 C   0  0  0  0  0  0  0  0  0  0  0  0
   16.3792   34.6308   34.5043 N   0  0  0  0  0  0  0  0  0  0  0  0
   15.9004   35.1932   36.8090 N   0  0  0  0  0  0  0  0  0  0  0  0
    9.7832   45.0052   32.1587 H   0  0  0  0  0  0  0  0  0  0  0  0
   10.8100   46.9716   33.0948 H   0  0  0  0  0  0  0  0  0  0  0  0
   11.8826   45.7124   32.8983 H   0  0  0  0  0  0  0  0  0  0  0  0
    8.4023   46.6376   33.4150 H   0  0  0  0  0  0  0  0  0  0  0  0
    7.8145   44.9735   33.6837 H   0  0  0  0  0  0  0  0  0  0  0  0
   10.0473   46.5061   37.7343 H   0  0  0  0  0  0  0  0  0  0  0  0
   10.1401   48.2502   37.3464 H   0  0  0  0  0  0  0  0  0  0  0  0
    7.8367   49.4587   36.8273 H   0  0  0  0  0  0  0  0  0  0  0  0
    8.1807   45.7939   39.0790 H   0  0  0  0  0  0  0  0  0  0  0  0
    5.6305   49.8737   37.8606 H   0  0  0  0  0  0  0  0  0  0  0  0
    5.9754   46.2257   40.1004 H   0  0  0  0  0  0  0  0  0  0  0  0
    4.6968   48.2619   39.4967 H   0  0  0  0  0  0  0  0  0  0  0  0
   11.3851   41.5414   31.4666 H   0  0  0  0  0  0  0  0  0  0  0  0
    9.8234   40.7187   31.7570 H   0  0  0  0  0  0  0  0  0  0  0  0
   11.7007   39.5017   30.3471 H   0  0  0  0  0  0  0  0  0  0  0  0
   10.1098   38.2751   32.6606 H   0  0  0  0  0  0  0  0  0  0  0  0
   13.6713   37.4591   31.2227 H   0  0  0  0  0  0  0  0  0  0  0  0
    9.0033   37.3835   30.9351 H   0  0  0  0  0  0  0  0  0  0  0  0
   11.2706   36.3048   32.5088 H   0  0  0  0  0  0  0  0  0  0  0  0
   12.1443   35.5136   30.6141 H   0  0  0  0  0  0  0  0  0  0  0  0
   12.3362   38.3592   34.7445 H   0  0  0  0  0  0  0  0  0  0  0  0
   16.7571   34.1787   32.4620 H   0  0  0  0  0  0  0  0  0  0  0  0
   15.3532   35.7355   37.5139 H   0  0  0  0  0  0  0  0  0  0  0  0
   16.6363   34.5314   37.1415 H   0  0  0  0  0  0  0  0  0  0  0  0
  1  2  2  0
  1  3  1  0
  3  4  1  0
  4  5  1  0
  6  1  1  0
  7  6  1  0
  6  8  1  0
  8  9  1  0
  9 10  1  0
  9 11  2  0
 10 12  1  0
 12 13  1  0
 13 14  2  0
 15 13  1  0
 14 16  1  0
 17 15  2  0
 16 18  2  0
 18 17  1  0
  4 19  2  0
  4 20  1  0
 21 20  1  0
 21 22  1  0
 22 23  1  0
 22 24  1  0
 23 25  1  0
 24 26  1  0
 24 27  1  0
 27 25  1  0
 25 28  1  0
 27 29  1  0
 30 28  1  0
 31 28  1  0
 32 30  2  0
 30 33  1  0
 34 31  2  0
 35 32  1  0
 33 36  2  0
 33 34  1  0
 37 35  2  0
 37 36  1  0
 36 38  1  0
  6 39  1  6
  7 40  1  0
  7 41  1  0
  8 42  1  0
  8 43  1  0
 12 44  1  0
 12 45  1  0
 14 46  1  0
 15 47  1  0
 16 48  1  0
 17 49  1  0
 18 50  1  0
 21 51  1  0
 21 52  1  0
 22 53  1  0
 24 54  1  0
 25 55  1  0
 26 56  1  0
 27 57  1  0
 29 58  1  0
 31 59  1  0
 35 60  1  0
 38 61  1  0
 38 62  1  0
M  CHG  1   5  -1
M  END
>  <EmbedRMS>  (114) 
0.0888454273332377

$$$$

     RDKit          3D

 62 65  0  0  0  0  0  0  0  0999 V2000
   10.2857   43.7716   33.8041 C   0  0  0  0  0  0  0  0  0  0  0  0
   11.4105   43.5871   34.3558 O   0  0  0  0  0  0  0  0  0  0  0  0
    9.3670   42.7308   33.6997 O   0  0  0  0  0  0  0  0  0  0  0  0
    9.8857   41.2342   34.2840 P   0  0  0  0  0  5  0  0  0  0  0  0
   10.3657   41.4699   35.8743 O   0  0  0  0  0  1  0  0  0  0  0  0
    9.9552   45.1130   33.2488 C   0  0  2  0  0  0  0  0  0  0  0  0
   11.0692   46.0342   33.4835 N   0  0  0  0  0  0  0  0  0  0  0  0
    8.6223   45.6646   33.8096 C   0  0  0  0  0  0  0  0  0  0  0  0
    8.5554   45.6242   35.3084 C   0  0  0  0  0  0  0  0  0  0  0  0
    9.1720   46.6317   36.0580 O   0  0  0  0  0  0  0  0  0  0  0  0
    7.9803   44.6582   35.8808 O   0  0  0  0  0  0  0  0  0  0  0  0
    9.3773   46.5377   37.4657 C   0  0  0  0  0  0  0  0  0  0  0  0
   10.4050   45.4804   37.7682 C   0  0  0  0  0  0  0  0  0  0  0  0
   10.0260   44.2580   38.3480 C   0  0  0  0  0  0  0  0  0  0  0  0
   11.7480   45.6874   37.4142 C   0  0  0  0  0  0  0  0  0  0  0  0
   10.9806   43.2623   38.5776 C   0  0  0  0  0  0  0  0  0  0  0  0
   12.6988   44.6877   37.6418 C   0  0  0  0  0  0  0  0  0  0  0  0
   12.3154   43.4761   38.2232 C   0  0  0  0  0  0  0  0  0  0  0  0
    8.8083   40.1912   34.2083 O   0  0  0  0  0  0  0  0  0  0  0  0
   11.2384   40.7901   33.3690 O   0  0  0  0  0  0  0  0  0  0  0  0
   10.9195   40.6895   31.9952 C   0  0  0  0  0  0  0  0  0  0  0  0
   11.5171   39.3802   31.4399 C   0  0  0  0  0  0  0  0  0  0  0  0
   12.7479   39.0862   32.0734 O   0  0  0  0  0  0  0  0  0  0  0  0
   10.6031   38.1892   31.6667 C   0  0  0  0  0  0  0  0  0  0  0  0
   12.9335   37.6797   32.0280 C   0  0  0  0  0  0  0  0  0  0  0  0
    9.6397   38.0778   30.6457 O   0  0  0  0  0  0  0  0  0  0  0  0
   11.5739   37.0154   31.7058 C   0  0  0  0  0  0  0  0  0  0  0  0
   13.4903   37.2178   33.3231 N   0  0  0  0  0  0  0  0  0  0  0  0
   11.6211   36.3377   30.4695 O   0  0  0  0  0  0  0  0  0  0  0  0
   14.4761   36.3273   33.5725 C   0  0  0  0  0  0  0  0  0  0  0  0
   13.1179   37.6318   34.5684 C   0  0  0  0  0  0  0  0  0  0  0  0
   15.2063   35.6139   32.6737 N   0  0  0  0  0  0  0  0  0  0  0  0
   14.6733   36.2278   34.9180 C   0  0  0  0  0  0  0  0  0  0  0  0
   13.8226   37.0460   35.5780 N   0  0  0  0  0  0  0  0  0  0  0  0
   16.1636   34.7595   33.1546 C   0  0  0  0  0  0  0  0  0  0  0  0
   15.6515   35.3494   35.4129 C   0  0  0  0  0  0  0  0  0  0  0  0
   16.3791   34.6311   34.5041 N   0  0  0  0  0  0  0  0  0  0  0  0
   15.9001   35.1936   36.8088 N   0  0  0  0  0  0  0  0  0  0  0  0
    9.8368   44.9925   32.1496 H   0  0  0  0  0  0  0  0  0  0  0  0
   10.8618   46.9413   33.0057 H   0  0  0  0  0  0  0  0  0  0  0  0
   11.1627   46.2340   34.5049 H   0  0  0  0  0  0  0  0  0  0  0  0
    7.7799   45.0695   33.3930 H   0  0  0  0  0  0  0  0  0  0  0  0
    8.4763   46.7117   33.4678 H   0  0  0  0  0  0  0  0  0  0  0  0
    9.7439   47.5174   37.8383 H   0  0  0  0  0  0  0  0  0  0  0  0
    8.4123   46.3287   37.9775 H   0  0  0  0  0  0  0  0  0  0  0  0
    8.9932   44.0725   38.6151 H   0  0  0  0  0  0  0  0  0  0  0  0
   12.0553   46.6187   36.9548 H   0  0  0  0  0  0  0  0  0  0  0  0
   10.6840   42.3215   39.0230 H   0  0  0  0  0  0  0  0  0  0  0  0
   13.7319   44.8510   37.3639 H   0  0  0  0  0  0  0  0  0  0  0  0
   13.0519   42.7021   38.3965 H   0  0  0  0  0  0  0  0  0  0  0  0
   11.4012   41.5438   31.4733 H   0  0  0  0  0  0  0  0  0  0  0  0
    9.8316   40.7398   31.7550 H   0  0  0  0  0  0  0  0  0  0  0  0
   11.6982   39.5045   30.3472 H   0  0  0  0  0  0  0  0  0  0  0  0
   10.1089   38.2632   32.6650 H   0  0  0  0  0  0  0  0  0  0  0  0
   13.6656   37.4541   31.2208 H   0  0  0  0  0  0  0  0  0  0  0  0
    8.8966   38.6901   30.8852 H   0  0  0  0  0  0  0  0  0  0  0  0
   11.2846   36.3060   32.5176 H   0  0  0  0  0  0  0  0  0  0  0  0
   10.8523   35.7095   30.4590 H   0  0  0  0  0  0  0  0  0  0  0  0
   12.3354   38.3590   34.7440 H   0  0  0  0  0  0  0  0  0  0  0  0
   16.7570   34.1788   32.4619 H   0  0  0  0  0  0  0  0  0  0  0  0
   15.3529   35.7359   37.5136 H   0  0  0  0  0  0  0  0  0  0  0  0
   16.6360   34.5317   37.1414 H   0  0  0  0  0  0  0  0  0  0  0  0
  1  2  2  0
  1  3  1  0
  3  4  1  0
  4  5  1  0
  6  1  1  0
  7  6  1  0
  6  8  1  0
  8  9  1  0
  9 10  1  0
  9 11  2  0
 10 12  1  0
 12 13  1  0
 13 14  2  0
 15 13  1  0
 14 16  1  0
 17 15  2  0
 16 18  2  0
 18 17  1  0
  4 19  2  0
  4 20  1  0
 21 20  1  0
 21 22  1  0
 22 23  1  0
 22 24  1  0
 23 25  1  0
 24 26  1  0
 24 27  1  0
 27 25  1  0
 25 28  1  0
 27 29  1  0
 30 28  1  0
 31 28  1  0
 32 30  2  0
 30 33  1  0
 34 31  2  0
 35 32  1  0
 33 36  2  0
 33 34  1  0
 37 35  2  0
 37 36  1  0
 36 38  1  0
  6 39  1  6
  7 40  1  0
  7 41  1  0
  8 42  1  0
  8 43  1  0
 12 44  1  0
 12 45  1  0
 14 46  1  0
 15 47  1  0
 16 48  1  0
 17 49  1  0
 18 50  1  0
 21 51  1  0
 21 52  1  0
 22 53  1  0
 24 54  1  0
 25 55  1  0
 26 56  1  0
 27 57  1  0
 29 58  1  0
 31 59  1  0
 35 60  1  0
 38 61  1  0
 38 62  1  0
M  CHG  1   5  -1
M  END
>  <EmbedRMS>  (115) 
0.08926081535796355

$$$$

     RDKit          3D

 62 65  0  0  0  0  0  0  0  0999 V2000
   10.2808   43.7760   33.8098 C   0  0  0  0  0  0  0  0  0  0  0  0
   11.4068   43.5917   34.3592 O   0  0  0  0  0  0  0  0  0  0  0  0
    9.3682   42.7300   33.6997 O   0  0  0  0  0  0  0  0  0  0  0  0
    9.8870   41.2337   34.2833 P   0  0  0  0  0  5  0  0  0  0  0  0
   10.3675   41.4693   35.8737 O   0  0  0  0  0  1  0  0  0  0  0  0
    9.9523   45.1160   33.2454 C   0  0  2  0  0  0  0  0  0  0  0  0
   11.0748   46.0259   33.4812 N   0  0  0  0  0  0  0  0  0  0  0  0
    8.6546   45.6911   33.8554 C   0  0  0  0  0  0  0  0  0  0  0  0
    7.4404   44.9344   33.4092 C   0  0  0  0  0  0  0  0  0  0  0  0
    7.0727   44.9578   32.0592 O   0  0  0  0  0  0  0  0  0  0  0  0
    6.7708   44.2727   34.2488 O   0  0  0  0  0  0  0  0  0  0  0  0
    5.9387   44.2631   31.5451 C   0  0  0  0  0  0  0  0  0  0  0  0
    4.6668   44.9371   31.9821 C   0  0  0  0  0  0  0  0  0  0  0  0
    3.7989   44.3095   32.8915 C   0  0  0  0  0  0  0  0  0  0  0  0
    4.3510   46.2175   31.4998 C   0  0  0  0  0  0  0  0  0  0  0  0
    2.6281   44.9530   33.3049 C   0  0  0  0  0  0  0  0  0  0  0  0
    3.1792   46.8575   31.9155 C   0  0  0  0  0  0  0  0  0  0  0  0
    2.3181   46.2255   32.8169 C   0  0  0  0  0  0  0  0  0  0  0  0
    8.8088   40.1914   34.2082 O   0  0  0  0  0  0  0  0  0  0  0  0
   11.2380   40.7905   33.3657 O   0  0  0  0  0  0  0  0  0  0  0  0
   10.9144   40.6850   31.9931 C   0  0  0  0  0  0  0  0  0  0  0  0
   11.5166   39.3773   31.4392 C   0  0  0  0  0  0  0  0  0  0  0  0
   12.7472   39.0854   32.0738 O   0  0  0  0  0  0  0  0  0  0  0  0
   10.6047   38.1868   31.6669 C   0  0  0  0  0  0  0  0  0  0  0  0
   12.9345   37.6790   32.0282 C   0  0  0  0  0  0  0  0  0  0  0  0
    9.6378   38.0918   30.6489 O   0  0  0  0  0  0  0  0  0  0  0  0
   11.5760   37.0129   31.7056 C   0  0  0  0  0  0  0  0  0  0  0  0
   13.4909   37.2177   33.3233 N   0  0  0  0  0  0  0  0  0  0  0  0
   11.6233   36.3371   30.4684 O   0  0  0  0  0  0  0  0  0  0  0  0
   14.4765   36.3272   33.5727 C   0  0  0  0  0  0  0  0  0  0  0  0
   13.1182   37.6316   34.5685 C   0  0  0  0  0  0  0  0  0  0  0  0
   15.2066   35.6137   32.6739 N   0  0  0  0  0  0  0  0  0  0  0  0
   14.6735   36.2276   34.9182 C   0  0  0  0  0  0  0  0  0  0  0  0
   13.8227   37.0457   35.5781 N   0  0  0  0  0  0  0  0  0  0  0  0
   16.1638   34.7593   33.1548 C   0  0  0  0  0  0  0  0  0  0  0  0
   15.6517   35.3493   35.4131 C   0  0  0  0  0  0  0  0  0  0  0  0
   16.3792   34.6309   34.5043 N   0  0  0  0  0  0  0  0  0  0  0  0
   15.9002   35.1934   36.8090 N   0  0  0  0  0  0  0  0  0  0  0  0
    9.8229   45.0001   32.1462 H   0  0  0  0  0  0  0  0  0  0  0  0
   10.9084   46.9080   32.9440 H   0  0  0  0  0  0  0  0  0  0  0  0
   11.1119   46.2832   34.4954 H   0  0  0  0  0  0  0  0  0  0  0  0
    8.7208   45.6866   34.9662 H   0  0  0  0  0  0  0  0  0  0  0  0
    8.5315   46.7472   33.5323 H   0  0  0  0  0  0  0  0  0  0  0  0
    5.9701   43.1983   31.8651 H   0  0  0  0  0  0  0  0  0  0  0  0
    5.9887   44.2744   30.4358 H   0  0  0  0  0  0  0  0  0  0  0  0
    4.0282   43.3257   33.2818 H   0  0  0  0  0  0  0  0  0  0  0  0
    5.0131   46.7187   30.8043 H   0  0  0  0  0  0  0  0  0  0  0  0
    1.9618   44.4658   34.0050 H   0  0  0  0  0  0  0  0  0  0  0  0
    2.9396   47.8440   31.5402 H   0  0  0  0  0  0  0  0  0  0  0  0
    1.4119   46.7224   33.1384 H   0  0  0  0  0  0  0  0  0  0  0  0
    9.8242   40.7213   31.7569 H   0  0  0  0  0  0  0  0  0  0  0  0
   11.3870   41.5415   31.4666 H   0  0  0  0  0  0  0  0  0  0  0  0
   11.6986   39.5012   30.3466 H   0  0  0  0  0  0  0  0  0  0  0  0
   10.1096   38.2772   32.6629 H   0  0  0  0  0  0  0  0  0  0  0  0
   13.6672   37.4544   31.2212 H   0  0  0  0  0  0  0  0  0  0  0  0
    8.9777   37.4160   30.9535 H   0  0  0  0  0  0  0  0  0  0  0  0
   11.2860   36.3041   32.5177 H   0  0  0  0  0  0  0  0  0  0  0  0
   10.8688   35.6919   30.4657 H   0  0  0  0  0  0  0  0  0  0  0  0
   12.3356   38.3587   34.7439 H   0  0  0  0  0  0  0  0  0  0  0  0
   16.7572   34.1786   32.4621 H   0  0  0  0  0  0  0  0  0  0  0  0
   15.3530   35.7358   37.5138 H   0  0  0  0  0  0  0  0  0  0  0  0
   16.6361   34.5315   37.1415 H   0  0  0  0  0  0  0  0  0  0  0  0
  1  2  2  0
  1  3  1  0
  3  4  1  0
  4  5  1  0
  6  1  1  0
  7  6  1  0
  6  8  1  0
  8  9  1  0
  9 10  1  0
  9 11  2  0
 10 12  1  0
 12 13  1  0
 13 14  2  0
 15 13  1  0
 14 16  1  0
 17 15  2  0
 16 18  2  0
 18 17  1  0
  4 19  2  0
  4 20  1  0
 21 20  1  0
 21 22  1  0
 22 23  1  0
 22 24  1  0
 23 25  1  0
 24 26  1  0
 24 27  1  0
 27 25  1  0
 25 28  1  0
 27 29  1  0
 30 28  1  0
 31 28  1  0
 32 30  2  0
 30 33  1  0
 34 31  2  0
 35 32  1  0
 33 36  2  0
 33 34  1  0
 37 35  2  0
 37 36  1  0
 36 38  1  0
  6 39  1  6
  7 40  1  0
  7 41  1  0
  8 42  1  0
  8 43  1  0
 12 44  1  0
 12 45  1  0
 14 46  1  0
 15 47  1  0
 16 48  1  0
 17 49  1  0
 18 50  1  0
 21 51  1  0
 21 52  1  0
 22 53  1  0
 24 54  1  0
 25 55  1  0
 26 56  1  0
 27 57  1  0
 29 58  1  0
 31 59  1  0
 35 60  1  0
 38 61  1  0
 38 62  1  0
M  CHG  1   5  -1
M  END
>  <EmbedRMS>  (116) 
0.08895398647013959

$$$$

     RDKit          3D

 62 65  0  0  0  0  0  0  0  0999 V2000
   10.2843   43.7743   33.8068 C   0  0  0  0  0  0  0  0  0  0  0  0
   11.4068   43.5903   34.3635 O   0  0  0  0  0  0  0  0  0  0  0  0
    9.3678   42.7312   33.6989 O   0  0  0  0  0  0  0  0  0  0  0  0
    9.8856   41.2344   34.2840 P   0  0  0  0  0  5  0  0  0  0  0  0
   10.3659   41.4699   35.8746 O   0  0  0  0  0  1  0  0  0  0  0  0
    9.9491   45.1165   33.2549 C   0  0  2  0  0  0  0  0  0  0  0  0
   11.0754   46.0280   33.4733 N   0  0  0  0  0  0  0  0  0  0  0  0
    8.6782   45.6535   33.9429 C   0  0  0  0  0  0  0  0  0  0  0  0
    8.1792   46.9038   33.2871 C   0  0  0  0  0  0  0  0  0  0  0  0
    8.4567   48.1453   33.8702 O   0  0  0  0  0  0  0  0  0  0  0  0
    7.5413   46.8287   32.2014 O   0  0  0  0  0  0  0  0  0  0  0  0
    8.0092   49.3840   33.3240 C   0  0  0  0  0  0  0  0  0  0  0  0
    6.5253   49.5377   33.5176 C   0  0  0  0  0  0  0  0  0  0  0  0
    5.6508   49.4956   32.4187 C   0  0  0  0  0  0  0  0  0  0  0  0
    6.0004   49.6980   34.8102 C   0  0  0  0  0  0  0  0  0  0  0  0
    4.2714   49.6207   32.6124 C   0  0  0  0  0  0  0  0  0  0  0  0
    4.6205   49.8229   34.9995 C   0  0  0  0  0  0  0  0  0  0  0  0
    3.7567   49.7849   33.9014 C   0  0  0  0  0  0  0  0  0  0  0  0
    8.8081   40.1914   34.2083 O   0  0  0  0  0  0  0  0  0  0  0  0
   11.2373   40.7904   33.3686 O   0  0  0  0  0  0  0  0  0  0  0  0
   10.9157   40.6897   31.9957 C   0  0  0  0  0  0  0  0  0  0  0  0
   11.5271   39.3897   31.4372 C   0  0  0  0  0  0  0  0  0  0  0  0
   12.7508   39.0915   32.0837 O   0  0  0  0  0  0  0  0  0  0  0  0
   10.6122   38.1915   31.6451 C   0  0  0  0  0  0  0  0  0  0  0  0
   12.9429   37.6852   32.0295 C   0  0  0  0  0  0  0  0  0  0  0  0
    9.6070   38.0858   30.6603 O   0  0  0  0  0  0  0  0  0  0  0  0
   11.5845   37.0185   31.6879 C   0  0  0  0  0  0  0  0  0  0  0  0
   13.4899   37.2163   33.3250 N   0  0  0  0  0  0  0  0  0  0  0  0
   11.6201   36.3062   30.4693 O   0  0  0  0  0  0  0  0  0  0  0  0
   14.4759   36.3263   33.5739 C   0  0  0  0  0  0  0  0  0  0  0  0
   13.1176   37.6307   34.5699 C   0  0  0  0  0  0  0  0  0  0  0  0
   15.2065   35.6139   32.6746 N   0  0  0  0  0  0  0  0  0  0  0  0
   14.6731   36.2267   34.9191 C   0  0  0  0  0  0  0  0  0  0  0  0
   13.8224   37.0450   35.5792 N   0  0  0  0  0  0  0  0  0  0  0  0
   16.1640   34.7596   33.1551 C   0  0  0  0  0  0  0  0  0  0  0  0
   15.6517   35.3489   35.4136 C   0  0  0  0  0  0  0  0  0  0  0  0
   16.3795   34.6310   34.5046 N   0  0  0  0  0  0  0  0  0  0  0  0
   15.9006   35.1931   36.8094 N   0  0  0  0  0  0  0  0  0  0  0  0
    9.7632   45.0051   32.1624 H   0  0  0  0  0  0  0  0  0  0  0  0
   11.8949   45.6776   32.9242 H   0  0  0  0  0  0  0  0  0  0  0  0
   10.8452   46.9558   33.0500 H   0  0  0  0  0  0  0  0  0  0  0  0
    8.8866   45.8566   35.0163 H   0  0  0  0  0  0  0  0  0  0  0  0
    7.8673   44.8937   33.8954 H   0  0  0  0  0  0  0  0  0  0  0  0
    8.5284   50.2122   33.8510 H   0  0  0  0  0  0  0  0  0  0  0  0
    8.2919   49.4490   32.2503 H   0  0  0  0  0  0  0  0  0  0  0  0
    6.0345   49.3639   31.4147 H   0  0  0  0  0  0  0  0  0  0  0  0
    6.6598   49.7243   35.6690 H   0  0  0  0  0  0  0  0  0  0  0  0
    3.6012   49.5885   31.7630 H   0  0  0  0  0  0  0  0  0  0  0  0
    4.2207   49.9474   35.9976 H   0  0  0  0  0  0  0  0  0  0  0  0
    2.6888   49.8809   34.0494 H   0  0  0  0  0  0  0  0  0  0  0  0
    9.8256   40.7190   31.7585 H   0  0  0  0  0  0  0  0  0  0  0  0
   11.3827   41.5525   31.4742 H   0  0  0  0  0  0  0  0  0  0  0  0
   11.7320   39.5336   30.3518 H   0  0  0  0  0  0  0  0  0  0  0  0
   10.1215   38.2683   32.6412 H   0  0  0  0  0  0  0  0  0  0  0  0
   13.6882   37.4706   31.2319 H   0  0  0  0  0  0  0  0  0  0  0  0
   10.0256   38.1750   29.7656 H   0  0  0  0  0  0  0  0  0  0  0  0
   11.2795   36.3123   32.4915 H   0  0  0  0  0  0  0  0  0  0  0  0
   11.9872   36.9099   29.7714 H   0  0  0  0  0  0  0  0  0  0  0  0
   12.3365   38.3595   34.7453 H   0  0  0  0  0  0  0  0  0  0  0  0
   16.7576   34.1794   32.4622 H   0  0  0  0  0  0  0  0  0  0  0  0
   15.3532   35.7351   37.5144 H   0  0  0  0  0  0  0  0  0  0  0  0
   16.6368   34.5316   37.1418 H   0  0  0  0  0  0  0  0  0  0  0  0
  1  2  2  0
  1  3  1  0
  3  4  1  0
  4  5  1  0
  6  1  1  0
  7  6  1  0
  6  8  1  0
  8  9  1  0
  9 10  1  0
  9 11  2  0
 10 12  1  0
 12 13  1  0
 13 14  2  0
 15 13  1  0
 14 16  1  0
 17 15  2  0
 16 18  2  0
 18 17  1  0
  4 19  2  0
  4 20  1  0
 21 20  1  0
 21 22  1  0
 22 23  1  0
 22 24  1  0
 23 25  1  0
 24 26  1  0
 24 27  1  0
 27 25  1  0
 25 28  1  0
 27 29  1  0
 30 28  1  0
 31 28  1  0
 32 30  2  0
 30 33  1  0
 34 31  2  0
 35 32  1  0
 33 36  2  0
 33 34  1  0
 37 35  2  0
 37 36  1  0
 36 38  1  0
  6 39  1  6
  7 40  1  0
  7 41  1  0
  8 42  1  0
  8 43  1  0
 12 44  1  0
 12 45  1  0
 14 46  1  0
 15 47  1  0
 16 48  1  0
 17 49  1  0
 18 50  1  0
 21 51  1  0
 21 52  1  0
 22 53  1  0
 24 54  1  0
 25 55  1  0
 26 56  1  0
 27 57  1  0
 29 58  1  0
 31 59  1  0
 35 60  1  0
 38 61  1  0
 38 62  1  0
M  CHG  1   5  -1
M  END
>  <EmbedRMS>  (117) 
0.08708058225767487

$$$$

     RDKit          3D

 62 65  0  0  0  0  0  0  0  0999 V2000
   10.2828   43.7754   33.8077 C   0  0  0  0  0  0  0  0  0  0  0  0
   11.4085   43.5914   34.3578 O   0  0  0  0  0  0  0  0  0  0  0  0
    9.3665   42.7320   33.7016 O   0  0  0  0  0  0  0  0  0  0  0  0
    9.8859   41.2347   34.2841 P   0  0  0  0  0  5  0  0  0  0  0  0
   10.3669   41.4695   35.8745 O   0  0  0  0  0  1  0  0  0  0  0  0
    9.9539   45.1112   33.2430 C   0  0  2  0  0  0  0  0  0  0  0  0
   11.0723   46.0271   33.4849 N   0  0  0  0  0  0  0  0  0  0  0  0
    8.6387   45.6435   33.8512 C   0  0  0  0  0  0  0  0  0  0  0  0
    8.2430   46.9445   33.2273 C   0  0  0  0  0  0  0  0  0  0  0  0
    7.7907   46.9600   31.9036 O   0  0  0  0  0  0  0  0  0  0  0  0
    8.3607   48.0164   33.8817 O   0  0  0  0  0  0  0  0  0  0  0  0
    7.6080   48.1604   31.1571 C   0  0  0  0  0  0  0  0  0  0  0  0
    8.9419   48.7821   30.8440 C   0  0  0  0  0  0  0  0  0  0  0  0
    9.8543   48.1026   30.0206 C   0  0  0  0  0  0  0  0  0  0  0  0
    9.3044   50.0205   31.3996 C   0  0  0  0  0  0  0  0  0  0  0  0
   11.1093   48.6575   29.7521 C   0  0  0  0  0  0  0  0  0  0  0  0
   10.5602   50.5725   31.1277 C   0  0  0  0  0  0  0  0  0  0  0  0
   11.4618   49.8919   30.3046 C   0  0  0  0  0  0  0  0  0  0  0  0
    8.8085   40.1916   34.2087 O   0  0  0  0  0  0  0  0  0  0  0  0
   11.2373   40.7910   33.3676 O   0  0  0  0  0  0  0  0  0  0  0  0
   10.9151   40.6884   31.9947 C   0  0  0  0  0  0  0  0  0  0  0  0
   11.5260   39.3871   31.4365 C   0  0  0  0  0  0  0  0  0  0  0  0
   12.7490   39.0894   32.0820 O   0  0  0  0  0  0  0  0  0  0  0  0
   10.6122   38.1893   31.6461 C   0  0  0  0  0  0  0  0  0  0  0  0
   12.9373   37.6828   32.0301 C   0  0  0  0  0  0  0  0  0  0  0  0
    9.6150   38.0839   30.6538 O   0  0  0  0  0  0  0  0  0  0  0  0
   11.5793   37.0137   31.7014 C   0  0  0  0  0  0  0  0  0  0  0  0
   13.4906   37.2170   33.3242 N   0  0  0  0  0  0  0  0  0  0  0  0
   11.6217   36.3253   30.4725 O   0  0  0  0  0  0  0  0  0  0  0  0
   14.4763   36.3266   33.5731 C   0  0  0  0  0  0  0  0  0  0  0  0
   13.1182   37.6308   34.5694 C   0  0  0  0  0  0  0  0  0  0  0  0
   15.2065   35.6137   32.6740 N   0  0  0  0  0  0  0  0  0  0  0  0
   14.6735   36.2270   34.9185 C   0  0  0  0  0  0  0  0  0  0  0  0
   13.8229   37.0451   35.5787 N   0  0  0  0  0  0  0  0  0  0  0  0
   16.1639   34.7593   33.1547 C   0  0  0  0  0  0  0  0  0  0  0  0
   15.6519   35.3489   35.4132 C   0  0  0  0  0  0  0  0  0  0  0  0
   16.3794   34.6308   34.5042 N   0  0  0  0  0  0  0  0  0  0  0  0
   15.9006   35.1931   36.8090 N   0  0  0  0  0  0  0  0  0  0  0  0
    9.8235   44.9843   32.1448 H   0  0  0  0  0  0  0  0  0  0  0  0
   11.0720   46.3303   34.4867 H   0  0  0  0  0  0  0  0  0  0  0  0
   10.9455   46.8826   32.8965 H   0  0  0  0  0  0  0  0  0  0  0  0
    7.8194   44.9142   33.6712 H   0  0  0  0  0  0  0  0  0  0  0  0
    8.7460   45.7662   34.9518 H   0  0  0  0  0  0  0  0  0  0  0  0
    7.0941   47.9124   30.2046 H   0  0  0  0  0  0  0  0  0  0  0  0
    6.9495   48.8593   31.7181 H   0  0  0  0  0  0  0  0  0  0  0  0
    9.5952   47.1414   29.5937 H   0  0  0  0  0  0  0  0  0  0  0  0
    8.6197   50.5554   32.0458 H   0  0  0  0  0  0  0  0  0  0  0  0
   11.8096   48.1293   29.1181 H   0  0  0  0  0  0  0  0  0  0  0  0
   10.8358   51.5267   31.5578 H   0  0  0  0  0  0  0  0  0  0  0  0
   12.4340   50.3198   30.0969 H   0  0  0  0  0  0  0  0  0  0  0  0
   11.3818   41.5504   31.4719 H   0  0  0  0  0  0  0  0  0  0  0  0
    9.8248   40.7179   31.7583 H   0  0  0  0  0  0  0  0  0  0  0  0
   11.7291   39.5287   30.3504 H   0  0  0  0  0  0  0  0  0  0  0  0
   10.1139   38.2719   32.6380 H   0  0  0  0  0  0  0  0  0  0  0  0
   13.6725   37.4638   31.2240 H   0  0  0  0  0  0  0  0  0  0  0  0
   10.0535   38.1085   29.7639 H   0  0  0  0  0  0  0  0  0  0  0  0
   11.2646   36.3135   32.5107 H   0  0  0  0  0  0  0  0  0  0  0  0
   12.1550   35.5033   30.6316 H   0  0  0  0  0  0  0  0  0  0  0  0
   12.3362   38.3586   34.7450 H   0  0  0  0  0  0  0  0  0  0  0  0
   16.7574   34.1789   32.4619 H   0  0  0  0  0  0  0  0  0  0  0  0
   15.3533   35.7353   37.5139 H   0  0  0  0  0  0  0  0  0  0  0  0
   16.6366   34.5314   37.1415 H   0  0  0  0  0  0  0  0  0  0  0  0
  1  2  2  0
  1  3  1  0
  3  4  1  0
  4  5  1  0
  6  1  1  0
  7  6  1  0
  6  8  1  0
  8  9  1  0
  9 10  1  0
  9 11  2  0
 10 12  1  0
 12 13  1  0
 13 14  2  0
 15 13  1  0
 14 16  1  0
 17 15  2  0
 16 18  2  0
 18 17  1  0
  4 19  2  0
  4 20  1  0
 21 20  1  0
 21 22  1  0
 22 23  1  0
 22 24  1  0
 23 25  1  0
 24 26  1  0
 24 27  1  0
 27 25  1  0
 25 28  1  0
 27 29  1  0
 30 28  1  0
 31 28  1  0
 32 30  2  0
 30 33  1  0
 34 31  2  0
 35 32  1  0
 33 36  2  0
 33 34  1  0
 37 35  2  0
 37 36  1  0
 36 38  1  0
  6 39  1  6
  7 40  1  0
  7 41  1  0
  8 42  1  0
  8 43  1  0
 12 44  1  0
 12 45  1  0
 14 46  1  0
 15 47  1  0
 16 48  1  0
 17 49  1  0
 18 50  1  0
 21 51  1  0
 21 52  1  0
 22 53  1  0
 24 54  1  0
 25 55  1  0
 26 56  1  0
 27 57  1  0
 29 58  1  0
 31 59  1  0
 35 60  1  0
 38 61  1  0
 38 62  1  0
M  CHG  1   5  -1
M  END
>  <EmbedRMS>  (118) 
0.08761198521424997

$$$$

     RDKit          3D

 62 65  0  0  0  0  0  0  0  0999 V2000
   10.2816   43.7757   33.8051 C   0  0  0  0  0  0  0  0  0  0  0  0
   11.4068   43.5922   34.3568 O   0  0  0  0  0  0  0  0  0  0  0  0
    9.3697   42.7296   33.6992 O   0  0  0  0  0  0  0  0  0  0  0  0
    9.8876   41.2339   34.2842 P   0  0  0  0  0  5  0  0  0  0  0  0
   10.3690   41.4707   35.8741 O   0  0  0  0  0  1  0  0  0  0  0  0
    9.9565   45.1151   33.2346 C   0  0  2  0  0  0  0  0  0  0  0  0
   11.0709   46.0281   33.4960 N   0  0  0  0  0  0  0  0  0  0  0  0
    8.6362   45.6803   33.8149 C   0  0  0  0  0  0  0  0  0  0  0  0
    7.4415   45.2123   33.0375 C   0  0  0  0  0  0  0  0  0  0  0  0
    6.9954   43.8967   33.1805 O   0  0  0  0  0  0  0  0  0  0  0  0
    6.8703   45.9992   32.2337 O   0  0  0  0  0  0  0  0  0  0  0  0
    5.9161   43.3577   32.4273 C   0  0  0  0  0  0  0  0  0  0  0  0
    5.8750   41.8715   32.6283 C   0  0  0  0  0  0  0  0  0  0  0  0
    6.5327   41.0161   31.7283 C   0  0  0  0  0  0  0  0  0  0  0  0
    5.2411   41.3280   33.7572 C   0  0  0  0  0  0  0  0  0  0  0  0
    6.5223   39.6337   31.9365 C   0  0  0  0  0  0  0  0  0  0  0  0
    5.2383   39.9449   33.9649 C   0  0  0  0  0  0  0  0  0  0  0  0
    5.8749   39.0980   33.0531 C   0  0  0  0  0  0  0  0  0  0  0  0
    8.8103   40.1912   34.2117 O   0  0  0  0  0  0  0  0  0  0  0  0
   11.2374   40.7901   33.3656 O   0  0  0  0  0  0  0  0  0  0  0  0
   10.9116   40.6840   31.9935 C   0  0  0  0  0  0  0  0  0  0  0  0
   11.5152   39.3772   31.4393 C   0  0  0  0  0  0  0  0  0  0  0  0
   12.7461   39.0857   32.0740 O   0  0  0  0  0  0  0  0  0  0  0  0
   10.6039   38.1860   31.6662 C   0  0  0  0  0  0  0  0  0  0  0  0
   12.9342   37.6795   32.0283 C   0  0  0  0  0  0  0  0  0  0  0  0
    9.6387   38.0903   30.6470 O   0  0  0  0  0  0  0  0  0  0  0  0
   11.5761   37.0128   31.7059 C   0  0  0  0  0  0  0  0  0  0  0  0
   13.4909   37.2180   33.3234 N   0  0  0  0  0  0  0  0  0  0  0  0
   11.6240   36.3366   30.4688 O   0  0  0  0  0  0  0  0  0  0  0  0
   14.4764   36.3273   33.5727 C   0  0  0  0  0  0  0  0  0  0  0  0
   13.1181   37.6317   34.5686 C   0  0  0  0  0  0  0  0  0  0  0  0
   15.2065   35.6139   32.6739 N   0  0  0  0  0  0  0  0  0  0  0  0
   14.6735   36.2277   34.9181 C   0  0  0  0  0  0  0  0  0  0  0  0
   13.8226   37.0458   35.5781 N   0  0  0  0  0  0  0  0  0  0  0  0
   16.1637   34.7594   33.1547 C   0  0  0  0  0  0  0  0  0  0  0  0
   15.6516   35.3493   35.4131 C   0  0  0  0  0  0  0  0  0  0  0  0
   16.3791   34.6310   34.5042 N   0  0  0  0  0  0  0  0  0  0  0  0
   15.9002   35.1934   36.8089 N   0  0  0  0  0  0  0  0  0  0  0  0
    9.8621   44.9983   32.1313 H   0  0  0  0  0  0  0  0  0  0  0  0
   11.0756   46.2924   34.5092 H   0  0  0  0  0  0  0  0  0  0  0  0
   10.9206   46.9056   32.9464 H   0  0  0  0  0  0  0  0  0  0  0  0
    8.5202   45.3900   34.8821 H   0  0  0  0  0  0  0  0  0  0  0  0
    8.6561   46.7921   33.7845 H   0  0  0  0  0  0  0  0  0  0  0  0
    6.0527   43.5908   31.3481 H   0  0  0  0  0  0  0  0  0  0  0  0
    4.9615   43.8192   32.7610 H   0  0  0  0  0  0  0  0  0  0  0  0
    7.0519   41.4182   30.8671 H   0  0  0  0  0  0  0  0  0  0  0  0
    4.7518   41.9745   34.4753 H   0  0  0  0  0  0  0  0  0  0  0  0
    7.0195   38.9785   31.2344 H   0  0  0  0  0  0  0  0  0  0  0  0
    4.7450   39.5298   34.8343 H   0  0  0  0  0  0  0  0  0  0  0  0
    5.8723   38.0280   33.2151 H   0  0  0  0  0  0  0  0  0  0  0  0
    9.8206   40.7178   31.7593 H   0  0  0  0  0  0  0  0  0  0  0  0
   11.3814   41.5414   31.4660 H   0  0  0  0  0  0  0  0  0  0  0  0
   11.6973   39.5018   30.3468 H   0  0  0  0  0  0  0  0  0  0  0  0
   10.1058   38.2760   32.6606 H   0  0  0  0  0  0  0  0  0  0  0  0
   13.6669   37.4553   31.2213 H   0  0  0  0  0  0  0  0  0  0  0  0
    8.9965   37.3914   30.9373 H   0  0  0  0  0  0  0  0  0  0  0  0
   11.2860   36.3044   32.5183 H   0  0  0  0  0  0  0  0  0  0  0  0
   10.8740   35.6862   30.4686 H   0  0  0  0  0  0  0  0  0  0  0  0
   12.3354   38.3587   34.7441 H   0  0  0  0  0  0  0  0  0  0  0  0
   16.7570   34.1787   32.4620 H   0  0  0  0  0  0  0  0  0  0  0  0
   16.6360   34.5315   37.1415 H   0  0  0  0  0  0  0  0  0  0  0  0
   15.3530   35.7358   37.5138 H   0  0  0  0  0  0  0  0  0  0  0  0
  1  2  2  0
  1  3  1  0
  3  4  1  0
  4  5  1  0
  6  1  1  0
  7  6  1  0
  6  8  1  0
  8  9  1  0
  9 10  1  0
  9 11  2  0
 10 12  1  0
 12 13  1  0
 13 14  2  0
 15 13  1  0
 14 16  1  0
 17 15  2  0
 16 18  2  0
 18 17  1  0
  4 19  2  0
  4 20  1  0
 21 20  1  0
 21 22  1  0
 22 23  1  0
 22 24  1  0
 23 25  1  0
 24 26  1  0
 24 27  1  0
 27 25  1  0
 25 28  1  0
 27 29  1  0
 30 28  1  0
 31 28  1  0
 32 30  2  0
 30 33  1  0
 34 31  2  0
 35 32  1  0
 33 36  2  0
 33 34  1  0
 37 35  2  0
 37 36  1  0
 36 38  1  0
  6 39  1  6
  7 40  1  0
  7 41  1  0
  8 42  1  0
  8 43  1  0
 12 44  1  0
 12 45  1  0
 14 46  1  0
 15 47  1  0
 16 48  1  0
 17 49  1  0
 18 50  1  0
 21 51  1  0
 21 52  1  0
 22 53  1  0
 24 54  1  0
 25 55  1  0
 26 56  1  0
 27 57  1  0
 29 58  1  0
 31 59  1  0
 35 60  1  0
 38 61  1  0
 38 62  1  0
M  CHG  1   5  -1
M  END
>  <EmbedRMS>  (119) 
0.08881806662302733

$$$$

     RDKit          3D

 62 65  0  0  0  0  0  0  0  0999 V2000
   10.2847   43.7733   33.8090 C   0  0  0  0  0  0  0  0  0  0  0  0
   11.4112   43.5878   34.3562 O   0  0  0  0  0  0  0  0  0  0  0  0
    9.3665   42.7319   33.7038 O   0  0  0  0  0  0  0  0  0  0  0  0
    9.8852   41.2341   34.2849 P   0  0  0  0  0  5  0  0  0  0  0  0
   10.3647   41.4663   35.8755 O   0  0  0  0  0  1  0  0  0  0  0  0
    9.9587   45.1100   33.2423 C   0  0  2  0  0  0  0  0  0  0  0  0
   11.0673   46.0375   33.4827 N   0  0  0  0  0  0  0  0  0  0  0  0
    8.6168   45.6577   33.7809 C   0  0  0  0  0  0  0  0  0  0  0  0
    8.6474   45.9343   35.2550 C   0  0  0  0  0  0  0  0  0  0  0  0
    8.6994   44.8667   36.1583 O   0  0  0  0  0  0  0  0  0  0  0  0
    8.6520   47.1266   35.6665 O   0  0  0  0  0  0  0  0  0  0  0  0
    8.9018   45.0384   37.5589 C   0  0  0  0  0  0  0  0  0  0  0  0
   10.3077   45.5027   37.8285 C   0  0  0  0  0  0  0  0  0  0  0  0
   10.5600   46.8215   38.2422 C   0  0  0  0  0  0  0  0  0  0  0  0
   11.3865   44.6292   37.6182 C   0  0  0  0  0  0  0  0  0  0  0  0
   11.8734   47.2549   38.4490 C   0  0  0  0  0  0  0  0  0  0  0  0
   12.6983   45.0665   37.8246 C   0  0  0  0  0  0  0  0  0  0  0  0
   12.9417   46.3783   38.2403 C   0  0  0  0  0  0  0  0  0  0  0  0
    8.8079   40.1912   34.2073 O   0  0  0  0  0  0  0  0  0  0  0  0
   11.2381   40.7916   33.3697 O   0  0  0  0  0  0  0  0  0  0  0  0
   10.9185   40.6908   31.9963 C   0  0  0  0  0  0  0  0  0  0  0  0
   11.5174   39.3825   31.4414 C   0  0  0  0  0  0  0  0  0  0  0  0
   12.7493   39.0894   32.0758 O   0  0  0  0  0  0  0  0  0  0  0  0
   10.6035   38.1900   31.6660 C   0  0  0  0  0  0  0  0  0  0  0  0
   12.9400   37.6835   32.0277 C   0  0  0  0  0  0  0  0  0  0  0  0
    9.6376   38.0786   30.6475 O   0  0  0  0  0  0  0  0  0  0  0  0
   11.5803   37.0204   31.6937 C   0  0  0  0  0  0  0  0  0  0  0  0
   13.4902   37.2178   33.3238 N   0  0  0  0  0  0  0  0  0  0  0  0
   11.6118   36.3194   30.4680 O   0  0  0  0  0  0  0  0  0  0  0  0
   14.4758   36.3272   33.5731 C   0  0  0  0  0  0  0  0  0  0  0  0
   13.1176   37.6318   34.5688 C   0  0  0  0  0  0  0  0  0  0  0  0
   15.2064   35.6142   32.6742 N   0  0  0  0  0  0  0  0  0  0  0  0
   14.6729   36.2274   34.9185 C   0  0  0  0  0  0  0  0  0  0  0  0
   13.8221   37.0458   35.5784 N   0  0  0  0  0  0  0  0  0  0  0  0
   16.1637   34.7597   33.1549 C   0  0  0  0  0  0  0  0  0  0  0  0
   15.6514   35.3493   35.4133 C   0  0  0  0  0  0  0  0  0  0  0  0
   16.3791   34.6312   34.5044 N   0  0  0  0  0  0  0  0  0  0  0  0
   15.9001   35.1935   36.8091 N   0  0  0  0  0  0  0  0  0  0  0  0
    9.8523   44.9776   32.1433 H   0  0  0  0  0  0  0  0  0  0  0  0
   11.1695   46.2229   34.5074 H   0  0  0  0  0  0  0  0  0  0  0  0
   10.8461   46.9499   33.0214 H   0  0  0  0  0  0  0  0  0  0  0  0
    8.3625   46.5921   33.2342 H   0  0  0  0  0  0  0  0  0  0  0  0
    7.8030   44.9307   33.5705 H   0  0  0  0  0  0  0  0  0  0  0  0
    8.1508   45.7503   37.9665 H   0  0  0  0  0  0  0  0  0  0  0  0
    8.7394   44.0626   38.0635 H   0  0  0  0  0  0  0  0  0  0  0  0
    9.7430   47.5147   38.3989 H   0  0  0  0  0  0  0  0  0  0  0  0
   11.2111   43.6129   37.2914 H   0  0  0  0  0  0  0  0  0  0  0  0
   12.0632   48.2718   38.7675 H   0  0  0  0  0  0  0  0  0  0  0  0
   13.5261   44.3889   37.6599 H   0  0  0  0  0  0  0  0  0  0  0  0
   13.9577   46.7160   38.3988 H   0  0  0  0  0  0  0  0  0  0  0  0
   11.3991   41.5456   31.4743 H   0  0  0  0  0  0  0  0  0  0  0  0
    9.8306   40.7398   31.7564 H   0  0  0  0  0  0  0  0  0  0  0  0
   11.6988   39.5093   30.3492 H   0  0  0  0  0  0  0  0  0  0  0  0
   10.1129   38.2589   32.6665 H   0  0  0  0  0  0  0  0  0  0  0  0
   13.6800   37.4630   31.2266 H   0  0  0  0  0  0  0  0  0  0  0  0
    8.8952   38.6909   30.8891 H   0  0  0  0  0  0  0  0  0  0  0  0
   11.2831   36.3061   32.4929 H   0  0  0  0  0  0  0  0  0  0  0  0
   11.8859   36.9590   29.7593 H   0  0  0  0  0  0  0  0  0  0  0  0
   12.3361   38.3601   34.7442 H   0  0  0  0  0  0  0  0  0  0  0  0
   16.7572   34.1793   32.4621 H   0  0  0  0  0  0  0  0  0  0  0  0
   16.6362   34.5318   37.1415 H   0  0  0  0  0  0  0  0  0  0  0  0
   15.3528   35.7357   37.5140 H   0  0  0  0  0  0  0  0  0  0  0  0
  1  2  2  0
  1  3  1  0
  3  4  1  0
  4  5  1  0
  6  1  1  0
  7  6  1  0
  6  8  1  0
  8  9  1  0
  9 10  1  0
  9 11  2  0
 10 12  1  0
 12 13  1  0
 13 14  2  0
 15 13  1  0
 14 16  1  0
 17 15  2  0
 16 18  2  0
 18 17  1  0
  4 19  2  0
  4 20  1  0
 21 20  1  0
 21 22  1  0
 22 23  1  0
 22 24  1  0
 23 25  1  0
 24 26  1  0
 24 27  1  0
 27 25  1  0
 25 28  1  0
 27 29  1  0
 30 28  1  0
 31 28  1  0
 32 30  2  0
 30 33  1  0
 34 31  2  0
 35 32  1  0
 33 36  2  0
 33 34  1  0
 37 35  2  0
 37 36  1  0
 36 38  1  0
  6 39  1  6
  7 40  1  0
  7 41  1  0
  8 42  1  0
  8 43  1  0
 12 44  1  0
 12 45  1  0
 14 46  1  0
 15 47  1  0
 16 48  1  0
 17 49  1  0
 18 50  1  0
 21 51  1  0
 21 52  1  0
 22 53  1  0
 24 54  1  0
 25 55  1  0
 26 56  1  0
 27 57  1  0
 29 58  1  0
 31 59  1  0
 35 60  1  0
 38 61  1  0
 38 62  1  0
M  CHG  1   5  -1
M  END
>  <EmbedRMS>  (120) 
0.08844214274842493

$$$$

     RDKit          3D

 62 65  0  0  0  0  0  0  0  0999 V2000
   10.2878   43.7687   33.8085 C   0  0  0  0  0  0  0  0  0  0  0  0
   11.4117   43.5793   34.3596 O   0  0  0  0  0  0  0  0  0  0  0  0
    9.3669   42.7302   33.7016 O   0  0  0  0  0  0  0  0  0  0  0  0
    9.8845   41.2324   34.2841 P   0  0  0  0  0  5  0  0  0  0  0  0
   10.3646   41.4679   35.8748 O   0  0  0  0  0  1  0  0  0  0  0  0
    9.9638   45.1116   33.2470 C   0  0  2  0  0  0  0  0  0  0  0  0
   11.0620   46.0541   33.4765 N   0  0  0  0  0  0  0  0  0  0  0  0
    8.6426   45.6681   33.8115 C   0  0  0  0  0  0  0  0  0  0  0  0
    8.6693   45.8306   35.3025 C   0  0  0  0  0  0  0  0  0  0  0  0
    9.0931   47.0443   35.8552 O   0  0  0  0  0  0  0  0  0  0  0  0
    8.3423   44.8636   36.0437 O   0  0  0  0  0  0  0  0  0  0  0  0
    9.1517   47.2866   37.2590 C   0  0  0  0  0  0  0  0  0  0  0  0
    7.7653   47.4178   37.8280 C   0  0  0  0  0  0  0  0  0  0  0  0
    6.9649   48.5169   37.4765 C   0  0  0  0  0  0  0  0  0  0  0  0
    7.2481   46.4359   38.6896 C   0  0  0  0  0  0  0  0  0  0  0  0
    5.6684   48.6357   37.9868 C   0  0  0  0  0  0  0  0  0  0  0  0
    5.9509   46.5583   39.1975 C   0  0  0  0  0  0  0  0  0  0  0  0
    5.1619   47.6575   38.8471 C   0  0  0  0  0  0  0  0  0  0  0  0
    8.8069   40.1899   34.2075 O   0  0  0  0  0  0  0  0  0  0  0  0
   11.2377   40.7893   33.3690 O   0  0  0  0  0  0  0  0  0  0  0  0
   10.9193   40.6893   31.9951 C   0  0  0  0  0  0  0  0  0  0  0  0
   11.5170   39.3801   31.4397 C   0  0  0  0  0  0  0  0  0  0  0  0
   12.7478   39.0861   32.0733 O   0  0  0  0  0  0  0  0  0  0  0  0
   10.6031   38.1890   31.6666 C   0  0  0  0  0  0  0  0  0  0  0  0
   12.9335   37.6796   32.0279 C   0  0  0  0  0  0  0  0  0  0  0  0
    9.6397   38.0777   30.6456 O   0  0  0  0  0  0  0  0  0  0  0  0
   11.5739   37.0154   31.7057 C   0  0  0  0  0  0  0  0  0  0  0  0
   13.4903   37.2178   33.3231 N   0  0  0  0  0  0  0  0  0  0  0  0
   11.6211   36.3376   30.4695 O   0  0  0  0  0  0  0  0  0  0  0  0
   14.4761   36.3273   33.5725 C   0  0  0  0  0  0  0  0  0  0  0  0
   13.1179   37.6317   34.5684 C   0  0  0  0  0  0  0  0  0  0  0  0
   15.2063   35.6139   32.6737 N   0  0  0  0  0  0  0  0  0  0  0  0
   14.6734   36.2278   34.9179 C   0  0  0  0  0  0  0  0  0  0  0  0
   13.8225   37.0459   35.5779 N   0  0  0  0  0  0  0  0  0  0  0  0
   16.1636   34.7594   33.1546 C   0  0  0  0  0  0  0  0  0  0  0  0
   15.6515   35.3494   35.4129 C   0  0  0  0  0  0  0  0  0  0  0  0
   16.3791   34.6311   34.5041 N   0  0  0  0  0  0  0  0  0  0  0  0
   15.9001   35.1935   36.8088 N   0  0  0  0  0  0  0  0  0  0  0  0
    9.8330   44.9917   32.1490 H   0  0  0  0  0  0  0  0  0  0  0  0
   11.9100   45.7267   32.9579 H   0  0  0  0  0  0  0  0  0  0  0  0
   11.3019   46.0982   34.4942 H   0  0  0  0  0  0  0  0  0  0  0  0
    7.8033   44.9946   33.5306 H   0  0  0  0  0  0  0  0  0  0  0  0
    8.4357   46.6558   33.3456 H   0  0  0  0  0  0  0  0  0  0  0  0
    9.7031   48.2347   37.4326 H   0  0  0  0  0  0  0  0  0  0  0  0
    9.7256   46.4759   37.7595 H   0  0  0  0  0  0  0  0  0  0  0  0
    7.3452   49.2786   36.8069 H   0  0  0  0  0  0  0  0  0  0  0  0
    7.8458   45.5761   38.9660 H   0  0  0  0  0  0  0  0  0  0  0  0
    5.0557   49.4851   37.7139 H   0  0  0  0  0  0  0  0  0  0  0  0
    5.5566   45.8000   39.8615 H   0  0  0  0  0  0  0  0  0  0  0  0
    4.1580   47.7504   39.2407 H   0  0  0  0  0  0  0  0  0  0  0  0
   11.4014   41.5437   31.4737 H   0  0  0  0  0  0  0  0  0  0  0  0
    9.8315   40.7398   31.7546 H   0  0  0  0  0  0  0  0  0  0  0  0
   11.6981   39.5044   30.3471 H   0  0  0  0  0  0  0  0  0  0  0  0
   10.1089   38.2630   32.6649 H   0  0  0  0  0  0  0  0  0  0  0  0
   13.6656   37.4541   31.2207 H   0  0  0  0  0  0  0  0  0  0  0  0
    8.8965   38.6899   30.8851 H   0  0  0  0  0  0  0  0  0  0  0  0
   11.2846   36.3060   32.5175 H   0  0  0  0  0  0  0  0  0  0  0  0
   10.8524   35.7094   30.4590 H   0  0  0  0  0  0  0  0  0  0  0  0
   12.3353   38.3588   34.7439 H   0  0  0  0  0  0  0  0  0  0  0  0
   16.7570   34.1788   32.4619 H   0  0  0  0  0  0  0  0  0  0  0  0
   16.6360   34.5317   37.1413 H   0  0  0  0  0  0  0  0  0  0  0  0
   15.3529   35.7359   37.5136 H   0  0  0  0  0  0  0  0  0  0  0  0
  1  2  2  0
  1  3  1  0
  3  4  1  0
  4  5  1  0
  6  1  1  0
  7  6  1  0
  6  8  1  0
  8  9  1  0
  9 10  1  0
  9 11  2  0
 10 12  1  0
 12 13  1  0
 13 14  2  0
 15 13  1  0
 14 16  1  0
 17 15  2  0
 16 18  2  0
 18 17  1  0
  4 19  2  0
  4 20  1  0
 21 20  1  0
 21 22  1  0
 22 23  1  0
 22 24  1  0
 23 25  1  0
 24 26  1  0
 24 27  1  0
 27 25  1  0
 25 28  1  0
 27 29  1  0
 30 28  1  0
 31 28  1  0
 32 30  2  0
 30 33  1  0
 34 31  2  0
 35 32  1  0
 33 36  2  0
 33 34  1  0
 37 35  2  0
 37 36  1  0
 36 38  1  0
  6 39  1  6
  7 40  1  0
  7 41  1  0
  8 42  1  0
  8 43  1  0
 12 44  1  0
 12 45  1  0
 14 46  1  0
 15 47  1  0
 16 48  1  0
 17 49  1  0
 18 50  1  0
 21 51  1  0
 21 52  1  0
 22 53  1  0
 24 54  1  0
 25 55  1  0
 26 56  1  0
 27 57  1  0
 29 58  1  0
 31 59  1  0
 35 60  1  0
 38 61  1  0
 38 62  1  0
M  CHG  1   5  -1
M  END
>  <EmbedRMS>  (121) 
0.09009425400224588

$$$$

     RDKit          3D

 62 65  0  0  0  0  0  0  0  0999 V2000
   10.2846   43.7734   33.8089 C   0  0  0  0  0  0  0  0  0  0  0  0
   11.4112   43.5878   34.3561 O   0  0  0  0  0  0  0  0  0  0  0  0
    9.3662   42.7321   33.7039 O   0  0  0  0  0  0  0  0  0  0  0  0
    9.8848   41.2343   34.2851 P   0  0  0  0  0  5  0  0  0  0  0  0
   10.3651   41.4664   35.8754 O   0  0  0  0  0  1  0  0  0  0  0  0
    9.9585   45.1102   33.2426 C   0  0  2  0  0  0  0  0  0  0  0  0
   11.0675   46.0375   33.4825 N   0  0  0  0  0  0  0  0  0  0  0  0
    8.6171   45.6580   33.7823 C   0  0  0  0  0  0  0  0  0  0  0  0
    8.6489   45.9342   35.2564 C   0  0  0  0  0  0  0  0  0  0  0  0
    8.7024   44.8665   36.1594 O   0  0  0  0  0  0  0  0  0  0  0  0
    8.6531   47.1264   35.6683 O   0  0  0  0  0  0  0  0  0  0  0  0
    8.9071   45.0380   37.5598 C   0  0  0  0  0  0  0  0  0  0  0  0
   10.3134   45.5020   37.8272 C   0  0  0  0  0  0  0  0  0  0  0  0
   11.3918   44.6282   37.6159 C   0  0  0  0  0  0  0  0  0  0  0  0
   10.5666   46.8211   38.2395 C   0  0  0  0  0  0  0  0  0  0  0  0
   12.7040   45.0653   37.8200 C   0  0  0  0  0  0  0  0  0  0  0  0
   11.8804   47.2544   38.4441 C   0  0  0  0  0  0  0  0  0  0  0  0
   12.9482   46.3774   38.2345 C   0  0  0  0  0  0  0  0  0  0  0  0
    8.8074   40.1914   34.2080 O   0  0  0  0  0  0  0  0  0  0  0  0
   11.2367   40.7914   33.3689 O   0  0  0  0  0  0  0  0  0  0  0  0
   10.9150   40.6900   31.9961 C   0  0  0  0  0  0  0  0  0  0  0  0
   11.5268   39.3900   31.4376 C   0  0  0  0  0  0  0  0  0  0  0  0
   12.7506   39.0918   32.0841 O   0  0  0  0  0  0  0  0  0  0  0  0
   10.6121   38.1916   31.6453 C   0  0  0  0  0  0  0  0  0  0  0  0
   12.9428   37.6854   32.0296 C   0  0  0  0  0  0  0  0  0  0  0  0
    9.6070   38.0858   30.6603 O   0  0  0  0  0  0  0  0  0  0  0  0
   11.5845   37.0187   31.6880 C   0  0  0  0  0  0  0  0  0  0  0  0
   13.4899   37.2164   33.3250 N   0  0  0  0  0  0  0  0  0  0  0  0
   11.6202   36.3063   30.4693 O   0  0  0  0  0  0  0  0  0  0  0  0
   14.4758   36.3264   33.5739 C   0  0  0  0  0  0  0  0  0  0  0  0
   13.1176   37.6308   34.5699 C   0  0  0  0  0  0  0  0  0  0  0  0
   15.2065   35.6139   32.6746 N   0  0  0  0  0  0  0  0  0  0  0  0
   14.6731   36.2267   34.9191 C   0  0  0  0  0  0  0  0  0  0  0  0
   13.8224   37.0450   35.5792 N   0  0  0  0  0  0  0  0  0  0  0  0
   16.1640   34.7596   33.1551 C   0  0  0  0  0  0  0  0  0  0  0  0
   15.6517   35.3489   35.4136 C   0  0  0  0  0  0  0  0  0  0  0  0
   16.3795   34.6310   34.5046 N   0  0  0  0  0  0  0  0  0  0  0  0
   15.9006   35.1931   36.8094 N   0  0  0  0  0  0  0  0  0  0  0  0
    9.8514   44.9780   32.1437 H   0  0  0  0  0  0  0  0  0  0  0  0
   10.8461   46.9500   33.0215 H   0  0  0  0  0  0  0  0  0  0  0  0
   11.1704   46.2227   34.5072 H   0  0  0  0  0  0  0  0  0  0  0  0
    7.8031   44.9311   33.5723 H   0  0  0  0  0  0  0  0  0  0  0  0
    8.3626   46.5925   33.2360 H   0  0  0  0  0  0  0  0  0  0  0  0
    8.1568   45.7498   37.9687 H   0  0  0  0  0  0  0  0  0  0  0  0
    8.7454   44.0620   38.0645 H   0  0  0  0  0  0  0  0  0  0  0  0
   11.2157   43.6116   37.2901 H   0  0  0  0  0  0  0  0  0  0  0  0
    9.7499   47.5146   38.3970 H   0  0  0  0  0  0  0  0  0  0  0  0
   13.5314   44.3875   37.6545 H   0  0  0  0  0  0  0  0  0  0  0  0
   12.0709   48.2714   38.7617 H   0  0  0  0  0  0  0  0  0  0  0  0
   13.9645   46.7150   38.3912 H   0  0  0  0  0  0  0  0  0  0  0  0
   11.3816   41.5528   31.4742 H   0  0  0  0  0  0  0  0  0  0  0  0
    9.8249   40.7190   31.7592 H   0  0  0  0  0  0  0  0  0  0  0  0
   11.7317   39.5340   30.3522 H   0  0  0  0  0  0  0  0  0  0  0  0
   10.1213   38.2682   32.6413 H   0  0  0  0  0  0  0  0  0  0  0  0
   13.6882   37.4711   31.2319 H   0  0  0  0  0  0  0  0  0  0  0  0
   10.0257   38.1752   29.7657 H   0  0  0  0  0  0  0  0  0  0  0  0
   11.2796   36.3124   32.4916 H   0  0  0  0  0  0  0  0  0  0  0  0
   11.9872   36.9100   29.7715 H   0  0  0  0  0  0  0  0  0  0  0  0
   12.3366   38.3597   34.7454 H   0  0  0  0  0  0  0  0  0  0  0  0
   16.7576   34.1795   32.4622 H   0  0  0  0  0  0  0  0  0  0  0  0
   15.3532   35.7351   37.5143 H   0  0  0  0  0  0  0  0  0  0  0  0
   16.6368   34.5316   37.1418 H   0  0  0  0  0  0  0  0  0  0  0  0
  1  2  2  0
  1  3  1  0
  3  4  1  0
  4  5  1  0
  6  1  1  0
  7  6  1  0
  6  8  1  0
  8  9  1  0
  9 10  1  0
  9 11  2  0
 10 12  1  0
 12 13  1  0
 13 14  2  0
 15 13  1  0
 14 16  1  0
 17 15  2  0
 16 18  2  0
 18 17  1  0
  4 19  2  0
  4 20  1  0
 21 20  1  0
 21 22  1  0
 22 23  1  0
 22 24  1  0
 23 25  1  0
 24 26  1  0
 24 27  1  0
 27 25  1  0
 25 28  1  0
 27 29  1  0
 30 28  1  0
 31 28  1  0
 32 30  2  0
 30 33  1  0
 34 31  2  0
 35 32  1  0
 33 36  2  0
 33 34  1  0
 37 35  2  0
 37 36  1  0
 36 38  1  0
  6 39  1  6
  7 40  1  0
  7 41  1  0
  8 42  1  0
  8 43  1  0
 12 44  1  0
 12 45  1  0
 14 46  1  0
 15 47  1  0
 16 48  1  0
 17 49  1  0
 18 50  1  0
 21 51  1  0
 21 52  1  0
 22 53  1  0
 24 54  1  0
 25 55  1  0
 26 56  1  0
 27 57  1  0
 29 58  1  0
 31 59  1  0
 35 60  1  0
 38 61  1  0
 38 62  1  0
M  CHG  1   5  -1
M  END
>  <EmbedRMS>  (122) 
0.08711695633784178

$$$$

     RDKit          3D

 62 65  0  0  0  0  0  0  0  0999 V2000
   10.2800   43.7765   33.8117 C   0  0  0  0  0  0  0  0  0  0  0  0
   11.4063   43.5922   34.3605 O   0  0  0  0  0  0  0  0  0  0  0  0
    9.3681   42.7299   33.7019 O   0  0  0  0  0  0  0  0  0  0  0  0
    9.8869   41.2333   34.2831 P   0  0  0  0  0  5  0  0  0  0  0  0
   10.3676   41.4680   35.8736 O   0  0  0  0  0  1  0  0  0  0  0  0
    9.9534   45.1158   33.2426 C   0  0  2  0  0  0  0  0  0  0  0  0
   11.0752   46.0259   33.4809 N   0  0  0  0  0  0  0  0  0  0  0  0
    8.6513   45.6977   33.8425 C   0  0  0  0  0  0  0  0  0  0  0  0
    7.4250   44.9133   33.4724 C   0  0  0  0  0  0  0  0  0  0  0  0
    7.3599   44.2537   32.2413 O   0  0  0  0  0  0  0  0  0  0  0  0
    6.4442   44.8863   34.2646 O   0  0  0  0  0  0  0  0  0  0  0  0
    6.2490   43.4561   31.8507 C   0  0  0  0  0  0  0  0  0  0  0  0
    6.5819   42.7500   30.5701 C   0  0  0  0  0  0  0  0  0  0  0  0
    6.4144   43.4040   29.3388 C   0  0  0  0  0  0  0  0  0  0  0  0
    7.1378   41.4601   30.5959 C   0  0  0  0  0  0  0  0  0  0  0  0
    6.7732   42.7646   28.1479 C   0  0  0  0  0  0  0  0  0  0  0  0
    7.4954   40.8245   29.4028 C   0  0  0  0  0  0  0  0  0  0  0  0
    7.3117   41.4752   28.1798 C   0  0  0  0  0  0  0  0  0  0  0  0
    8.8084   40.1913   34.2071 O   0  0  0  0  0  0  0  0  0  0  0  0
   11.2379   40.7911   33.3649 O   0  0  0  0  0  0  0  0  0  0  0  0
   10.9137   40.6845   31.9925 C   0  0  0  0  0  0  0  0  0  0  0  0
   11.5173   39.3774   31.4390 C   0  0  0  0  0  0  0  0  0  0  0  0
   12.7476   39.0870   32.0751 O   0  0  0  0  0  0  0  0  0  0  0  0
   10.6068   38.1853   31.6660 C   0  0  0  0  0  0  0  0  0  0  0  0
   12.9370   37.6812   32.0289 C   0  0  0  0  0  0  0  0  0  0  0  0
    9.6409   38.0872   30.6478 O   0  0  0  0  0  0  0  0  0  0  0  0
   11.5787   37.0136   31.7048 C   0  0  0  0  0  0  0  0  0  0  0  0
   13.4915   37.2184   33.3238 N   0  0  0  0  0  0  0  0  0  0  0  0
   11.6121   36.3389   30.4677 O   0  0  0  0  0  0  0  0  0  0  0  0
   14.4766   36.3273   33.5730 C   0  0  0  0  0  0  0  0  0  0  0  0
   13.1184   37.6318   34.5690 C   0  0  0  0  0  0  0  0  0  0  0  0
   15.2066   35.6140   32.6740 N   0  0  0  0  0  0  0  0  0  0  0  0
   14.6735   36.2274   34.9184 C   0  0  0  0  0  0  0  0  0  0  0  0
   13.8227   37.0456   35.5785 N   0  0  0  0  0  0  0  0  0  0  0  0
   16.1637   34.7593   33.1547 C   0  0  0  0  0  0  0  0  0  0  0  0
   15.6516   35.3491   35.4132 C   0  0  0  0  0  0  0  0  0  0  0  0
   16.3792   34.6309   34.5042 N   0  0  0  0  0  0  0  0  0  0  0  0
   15.9003   35.1932   36.8090 N   0  0  0  0  0  0  0  0  0  0  0  0
    9.8328   44.9980   32.1429 H   0  0  0  0  0  0  0  0  0  0  0  0
   10.9089   46.9089   32.9451 H   0  0  0  0  0  0  0  0  0  0  0  0
   11.1116   46.2817   34.4956 H   0  0  0  0  0  0  0  0  0  0  0  0
    8.5105   46.7358   33.4726 H   0  0  0  0  0  0  0  0  0  0  0  0
    8.7400   45.7428   34.9507 H   0  0  0  0  0  0  0  0  0  0  0  0
    5.3548   44.1023   31.7129 H   0  0  0  0  0  0  0  0  0  0  0  0
    6.0190   42.7137   32.6468 H   0  0  0  0  0  0  0  0  0  0  0  0
    6.0097   44.4080   29.3020 H   0  0  0  0  0  0  0  0  0  0  0  0
    7.2947   40.9483   31.5374 H   0  0  0  0  0  0  0  0  0  0  0  0
    6.6383   43.2706   27.2007 H   0  0  0  0  0  0  0  0  0  0  0  0
    7.9172   39.8288   29.4259 H   0  0  0  0  0  0  0  0  0  0  0  0
    7.5906   40.9823   27.2575 H   0  0  0  0  0  0  0  0  0  0  0  0
    9.8244   40.7181   31.7573 H   0  0  0  0  0  0  0  0  0  0  0  0
   11.3837   41.5417   31.4649 H   0  0  0  0  0  0  0  0  0  0  0  0
   11.6998   39.5016   30.3465 H   0  0  0  0  0  0  0  0  0  0  0  0
   10.1097   38.2760   32.6609 H   0  0  0  0  0  0  0  0  0  0  0  0
   13.6710   37.4590   31.2226 H   0  0  0  0  0  0  0  0  0  0  0  0
    8.9960   37.3923   30.9415 H   0  0  0  0  0  0  0  0  0  0  0  0
   11.2704   36.3052   32.5093 H   0  0  0  0  0  0  0  0  0  0  0  0
   12.1437   35.5135   30.6146 H   0  0  0  0  0  0  0  0  0  0  0  0
   12.3361   38.3593   34.7444 H   0  0  0  0  0  0  0  0  0  0  0  0
   16.7570   34.1787   32.4620 H   0  0  0  0  0  0  0  0  0  0  0  0
   15.3531   35.7356   37.5139 H   0  0  0  0  0  0  0  0  0  0  0  0
   16.6362   34.5314   37.1415 H   0  0  0  0  0  0  0  0  0  0  0  0
  1  2  2  0
  1  3  1  0
  3  4  1  0
  4  5  1  0
  6  1  1  0
  7  6  1  0
  6  8  1  0
  8  9  1  0
  9 10  1  0
  9 11  2  0
 10 12  1  0
 12 13  1  0
 13 14  2  0
 15 13  1  0
 14 16  1  0
 17 15  2  0
 16 18  2  0
 18 17  1  0
  4 19  2  0
  4 20  1  0
 21 20  1  0
 21 22  1  0
 22 23  1  0
 22 24  1  0
 23 25  1  0
 24 26  1  0
 24 27  1  0
 27 25  1  0
 25 28  1  0
 27 29  1  0
 30 28  1  0
 31 28  1  0
 32 30  2  0
 30 33  1  0
 34 31  2  0
 35 32  1  0
 33 36  2  0
 33 34  1  0
 37 35  2  0
 37 36  1  0
 36 38  1  0
  6 39  1  6
  7 40  1  0
  7 41  1  0
  8 42  1  0
  8 43  1  0
 12 44  1  0
 12 45  1  0
 14 46  1  0
 15 47  1  0
 16 48  1  0
 17 49  1  0
 18 50  1  0
 21 51  1  0
 21 52  1  0
 22 53  1  0
 24 54  1  0
 25 55  1  0
 26 56  1  0
 27 57  1  0
 29 58  1  0
 31 59  1  0
 35 60  1  0
 38 61  1  0
 38 62  1  0
M  CHG  1   5  -1
M  END
>  <EmbedRMS>  (123) 
0.08891185234948713

$$$$

     RDKit          3D

 62 65  0  0  0  0  0  0  0  0999 V2000
   10.2802   43.7758   33.8075 C   0  0  0  0  0  0  0  0  0  0  0  0
   11.4058   43.5915   34.3580 O   0  0  0  0  0  0  0  0  0  0  0  0
    9.3679   42.7297   33.6982 O   0  0  0  0  0  0  0  0  0  0  0  0
    9.8869   41.2341   34.2845 P   0  0  0  0  0  5  0  0  0  0  0  0
   10.3659   41.4709   35.8751 O   0  0  0  0  0  1  0  0  0  0  0  0
    9.9530   45.1167   33.2435 C   0  0  2  0  0  0  0  0  0  0  0  0
   11.0751   46.0254   33.4860 N   0  0  0  0  0  0  0  0  0  0  0  0
    8.6521   45.6893   33.8507 C   0  0  0  0  0  0  0  0  0  0  0  0
    7.4321   45.0369   33.2751 C   0  0  0  0  0  0  0  0  0  0  0  0
    6.8342   43.9707   33.9522 O   0  0  0  0  0  0  0  0  0  0  0  0
    6.9734   45.4346   32.1693 O   0  0  0  0  0  0  0  0  0  0  0  0
    5.6831   43.2955   33.4580 C   0  0  0  0  0  0  0  0  0  0  0  0
    5.3695   42.1333   34.3535 C   0  0  0  0  0  0  0  0  0  0  0  0
    4.7897   42.3536   35.6133 C   0  0  0  0  0  0  0  0  0  0  0  0
    5.7005   40.8240   33.9664 C   0  0  0  0  0  0  0  0  0  0  0  0
    4.5297   41.2766   36.4666 C   0  0  0  0  0  0  0  0  0  0  0  0
    5.4397   39.7498   34.8229 C   0  0  0  0  0  0  0  0  0  0  0  0
    4.8536   39.9756   36.0714 C   0  0  0  0  0  0  0  0  0  0  0  0
    8.8121   40.1889   34.2089 O   0  0  0  0  0  0  0  0  0  0  0  0
   11.2393   40.7914   33.3695 O   0  0  0  0  0  0  0  0  0  0  0  0
   10.9186   40.6905   31.9963 C   0  0  0  0  0  0  0  0  0  0  0  0
   11.5172   39.3824   31.4413 C   0  0  0  0  0  0  0  0  0  0  0  0
   12.7493   39.0893   32.0755 O   0  0  0  0  0  0  0  0  0  0  0  0
   10.6033   38.1900   31.6663 C   0  0  0  0  0  0  0  0  0  0  0  0
   12.9399   37.6834   32.0276 C   0  0  0  0  0  0  0  0  0  0  0  0
    9.6371   38.0788   30.6479 O   0  0  0  0  0  0  0  0  0  0  0  0
   11.5801   37.0204   31.6938 C   0  0  0  0  0  0  0  0  0  0  0  0
   13.4901   37.2177   33.3237 N   0  0  0  0  0  0  0  0  0  0  0  0
   11.6115   36.3194   30.4680 O   0  0  0  0  0  0  0  0  0  0  0  0
   14.4758   36.3272   33.5731 C   0  0  0  0  0  0  0  0  0  0  0  0
   13.1175   37.6317   34.5688 C   0  0  0  0  0  0  0  0  0  0  0  0
   15.2064   35.6142   32.6742 N   0  0  0  0  0  0  0  0  0  0  0  0
   14.6729   36.2274   34.9184 C   0  0  0  0  0  0  0  0  0  0  0  0
   13.8221   37.0457   35.5783 N   0  0  0  0  0  0  0  0  0  0  0  0
   16.1637   34.7597   33.1549 C   0  0  0  0  0  0  0  0  0  0  0  0
   15.6513   35.3493   35.4132 C   0  0  0  0  0  0  0  0  0  0  0  0
   16.3791   34.6312   34.5043 N   0  0  0  0  0  0  0  0  0  0  0  0
   15.9001   35.1935   36.8091 N   0  0  0  0  0  0  0  0  0  0  0  0
    9.8304   45.0033   32.1429 H   0  0  0  0  0  0  0  0  0  0  0  0
   10.9170   46.9049   32.9421 H   0  0  0  0  0  0  0  0  0  0  0  0
   11.1013   46.2877   34.4994 H   0  0  0  0  0  0  0  0  0  0  0  0
    8.6555   45.5669   34.9561 H   0  0  0  0  0  0  0  0  0  0  0  0
    8.5905   46.7796   33.6408 H   0  0  0  0  0  0  0  0  0  0  0  0
    5.8703   42.9462   32.4185 H   0  0  0  0  0  0  0  0  0  0  0  0
    4.8202   43.9961   33.4365 H   0  0  0  0  0  0  0  0  0  0  0  0
    4.5428   43.3583   35.9341 H   0  0  0  0  0  0  0  0  0  0  0  0
    6.1642   40.6345   33.0061 H   0  0  0  0  0  0  0  0  0  0  0  0
    4.0805   41.4510   37.4358 H   0  0  0  0  0  0  0  0  0  0  0  0
    5.6962   38.7428   34.5204 H   0  0  0  0  0  0  0  0  0  0  0  0
    4.6538   39.1433   36.7338 H   0  0  0  0  0  0  0  0  0  0  0  0
   11.3986   41.5454   31.4738 H   0  0  0  0  0  0  0  0  0  0  0  0
    9.8303   40.7392   31.7570 H   0  0  0  0  0  0  0  0  0  0  0  0
   11.6985   39.5091   30.3490 H   0  0  0  0  0  0  0  0  0  0  0  0
   10.1130   38.2590   32.6669 H   0  0  0  0  0  0  0  0  0  0  0  0
   13.6798   37.4627   31.2265 H   0  0  0  0  0  0  0  0  0  0  0  0
    8.8937   38.6892   30.8913 H   0  0  0  0  0  0  0  0  0  0  0  0
   11.2829   36.3060   32.4930 H   0  0  0  0  0  0  0  0  0  0  0  0
   11.8853   36.9592   29.7593 H   0  0  0  0  0  0  0  0  0  0  0  0
   12.3359   38.3599   34.7442 H   0  0  0  0  0  0  0  0  0  0  0  0
   16.7572   34.1793   32.4621 H   0  0  0  0  0  0  0  0  0  0  0  0
   16.6362   34.5318   37.1416 H   0  0  0  0  0  0  0  0  0  0  0  0
   15.3528   35.7357   37.5140 H   0  0  0  0  0  0  0  0  0  0  0  0
  1  2  2  0
  1  3  1  0
  3  4  1  0
  4  5  1  0
  6  1  1  0
  7  6  1  0
  6  8  1  0
  8  9  1  0
  9 10  1  0
  9 11  2  0
 10 12  1  0
 12 13  1  0
 13 14  2  0
 15 13  1  0
 14 16  1  0
 17 15  2  0
 16 18  2  0
 18 17  1  0
  4 19  2  0
  4 20  1  0
 21 20  1  0
 21 22  1  0
 22 23  1  0
 22 24  1  0
 23 25  1  0
 24 26  1  0
 24 27  1  0
 27 25  1  0
 25 28  1  0
 27 29  1  0
 30 28  1  0
 31 28  1  0
 32 30  2  0
 30 33  1  0
 34 31  2  0
 35 32  1  0
 33 36  2  0
 33 34  1  0
 37 35  2  0
 37 36  1  0
 36 38  1  0
  6 39  1  6
  7 40  1  0
  7 41  1  0
  8 42  1  0
  8 43  1  0
 12 44  1  0
 12 45  1  0
 14 46  1  0
 15 47  1  0
 16 48  1  0
 17 49  1  0
 18 50  1  0
 21 51  1  0
 21 52  1  0
 22 53  1  0
 24 54  1  0
 25 55  1  0
 26 56  1  0
 27 57  1  0
 29 58  1  0
 31 59  1  0
 35 60  1  0
 38 61  1  0
 38 62  1  0
M  CHG  1   5  -1
M  END
>  <EmbedRMS>  (124) 
0.08799456485480073

$$$$

     RDKit          3D

 62 65  0  0  0  0  0  0  0  0999 V2000
   10.2811   43.7751   33.8078 C   0  0  0  0  0  0  0  0  0  0  0  0
   11.4039   43.5911   34.3641 O   0  0  0  0  0  0  0  0  0  0  0  0
    9.3695   42.7287   33.6945 O   0  0  0  0  0  0  0  0  0  0  0  0
    9.8866   41.2335   34.2832 P   0  0  0  0  0  5  0  0  0  0  0  0
   10.3654   41.4710   35.8739 O   0  0  0  0  0  1  0  0  0  0  0  0
    9.9450   45.1235   33.2625 C   0  0  2  0  0  0  0  0  0  0  0  0
   11.0814   46.0234   33.4679 N   0  0  0  0  0  0  0  0  0  0  0  0
    8.6979   45.7038   33.9633 C   0  0  0  0  0  0  0  0  0  0  0  0
    7.4389   45.0109   33.5391 C   0  0  0  0  0  0  0  0  0  0  0  0
    6.8999   44.0060   34.3467 O   0  0  0  0  0  0  0  0  0  0  0  0
    6.8920   45.3201   32.4452 O   0  0  0  0  0  0  0  0  0  0  0  0
    5.7112   43.3010   34.0071 C   0  0  0  0  0  0  0  0  0  0  0  0
    5.4650   42.2280   35.0268 C   0  0  0  0  0  0  0  0  0  0  0  0
    5.0450   42.5737   36.3214 C   0  0  0  0  0  0  0  0  0  0  0  0
    5.6964   40.8779   34.7148 C   0  0  0  0  0  0  0  0  0  0  0  0
    4.8477   41.5807   37.2863 C   0  0  0  0  0  0  0  0  0  0  0  0
    5.4994   39.8881   35.6828 C   0  0  0  0  0  0  0  0  0  0  0  0
    5.0744   40.2390   36.9671 C   0  0  0  0  0  0  0  0  0  0  0  0
    8.8110   40.1892   34.2080 O   0  0  0  0  0  0  0  0  0  0  0  0
   11.2382   40.7895   33.3679 O   0  0  0  0  0  0  0  0  0  0  0  0
   10.9159   40.6880   31.9949 C   0  0  0  0  0  0  0  0  0  0  0  0
   11.5262   39.3870   31.4364 C   0  0  0  0  0  0  0  0  0  0  0  0
   12.7493   39.0891   32.0817 O   0  0  0  0  0  0  0  0  0  0  0  0
   10.6122   38.1894   31.6462 C   0  0  0  0  0  0  0  0  0  0  0  0
   12.9373   37.6825   32.0301 C   0  0  0  0  0  0  0  0  0  0  0  0
    9.6149   38.0839   30.6540 O   0  0  0  0  0  0  0  0  0  0  0  0
   11.5792   37.0136   31.7014 C   0  0  0  0  0  0  0  0  0  0  0  0
   13.4906   37.2169   33.3242 N   0  0  0  0  0  0  0  0  0  0  0  0
   11.6214   36.3252   30.4726 O   0  0  0  0  0  0  0  0  0  0  0  0
   14.4763   36.3266   33.5731 C   0  0  0  0  0  0  0  0  0  0  0  0
   13.1181   37.6308   34.5694 C   0  0  0  0  0  0  0  0  0  0  0  0
   15.2065   35.6137   32.6740 N   0  0  0  0  0  0  0  0  0  0  0  0
   14.6735   36.2270   34.9185 C   0  0  0  0  0  0  0  0  0  0  0  0
   13.8228   37.0451   35.5787 N   0  0  0  0  0  0  0  0  0  0  0  0
   16.1639   34.7593   33.1547 C   0  0  0  0  0  0  0  0  0  0  0  0
   15.6518   35.3489   35.4132 C   0  0  0  0  0  0  0  0  0  0  0  0
   16.3794   34.6308   34.5042 N   0  0  0  0  0  0  0  0  0  0  0  0
   15.9006   35.1931   36.8090 N   0  0  0  0  0  0  0  0  0  0  0  0
    9.7491   45.0294   32.1699 H   0  0  0  0  0  0  0  0  0  0  0  0
   11.8853   45.6773   32.8934 H   0  0  0  0  0  0  0  0  0  0  0  0
   10.8422   46.9593   33.0663 H   0  0  0  0  0  0  0  0  0  0  0  0
    8.5937   46.7823   33.7137 H   0  0  0  0  0  0  0  0  0  0  0  0
    8.8108   45.6319   35.0675 H   0  0  0  0  0  0  0  0  0  0  0  0
    5.8152   42.8593   32.9915 H   0  0  0  0  0  0  0  0  0  0  0  0
    4.8512   44.0053   33.9919 H   0  0  0  0  0  0  0  0  0  0  0  0
    4.8744   43.6109   36.5827 H   0  0  0  0  0  0  0  0  0  0  0  0
    6.0312   40.5912   33.7256 H   0  0  0  0  0  0  0  0  0  0  0  0
    4.5225   41.8518   38.2824 H   0  0  0  0  0  0  0  0  0  0  0  0
    5.6791   38.8493   35.4378 H   0  0  0  0  0  0  0  0  0  0  0  0
    4.9233   39.4718   37.7154 H   0  0  0  0  0  0  0  0  0  0  0  0
   11.3832   41.5502   31.4727 H   0  0  0  0  0  0  0  0  0  0  0  0
    9.8257   40.7181   31.7581 H   0  0  0  0  0  0  0  0  0  0  0  0
   11.7290   39.5285   30.3502 H   0  0  0  0  0  0  0  0  0  0  0  0
   10.1139   38.2720   32.6381 H   0  0  0  0  0  0  0  0  0  0  0  0
   13.6725   37.4632   31.2240 H   0  0  0  0  0  0  0  0  0  0  0  0
   10.0533   38.1085   29.7640 H   0  0  0  0  0  0  0  0  0  0  0  0
   11.2644   36.3134   32.5108 H   0  0  0  0  0  0  0  0  0  0  0  0
   12.1545   35.5031   30.6316 H   0  0  0  0  0  0  0  0  0  0  0  0
   12.3360   38.3585   34.7450 H   0  0  0  0  0  0  0  0  0  0  0  0
   16.7573   34.1788   32.4619 H   0  0  0  0  0  0  0  0  0  0  0  0
   16.6366   34.5314   37.1415 H   0  0  0  0  0  0  0  0  0  0  0  0
   15.3533   35.7353   37.5139 H   0  0  0  0  0  0  0  0  0  0  0  0
  1  2  2  0
  1  3  1  0
  3  4  1  0
  4  5  1  0
  6  1  1  0
  7  6  1  0
  6  8  1  0
  8  9  1  0
  9 10  1  0
  9 11  2  0
 10 12  1  0
 12 13  1  0
 13 14  2  0
 15 13  1  0
 14 16  1  0
 17 15  2  0
 16 18  2  0
 18 17  1  0
  4 19  2  0
  4 20  1  0
 21 20  1  0
 21 22  1  0
 22 23  1  0
 22 24  1  0
 23 25  1  0
 24 26  1  0
 24 27  1  0
 27 25  1  0
 25 28  1  0
 27 29  1  0
 30 28  1  0
 31 28  1  0
 32 30  2  0
 30 33  1  0
 34 31  2  0
 35 32  1  0
 33 36  2  0
 33 34  1  0
 37 35  2  0
 37 36  1  0
 36 38  1  0
  6 39  1  6
  7 40  1  0
  7 41  1  0
  8 42  1  0
  8 43  1  0
 12 44  1  0
 12 45  1  0
 14 46  1  0
 15 47  1  0
 16 48  1  0
 17 49  1  0
 18 50  1  0
 21 51  1  0
 21 52  1  0
 22 53  1  0
 24 54  1  0
 25 55  1  0
 26 56  1  0
 27 57  1  0
 29 58  1  0
 31 59  1  0
 35 60  1  0
 38 61  1  0
 38 62  1  0
M  CHG  1   5  -1
M  END
>  <EmbedRMS>  (125) 
0.08819699260026662

$$$$

     RDKit          3D

 62 65  0  0  0  0  0  0  0  0999 V2000
   10.2816   43.7736   33.8048 C   0  0  0  0  0  0  0  0  0  0  0  0
   11.4034   43.5898   34.3634 O   0  0  0  0  0  0  0  0  0  0  0  0
    9.3662   42.7298   33.6979 O   0  0  0  0  0  0  0  0  0  0  0  0
    9.8868   41.2346   34.2842 P   0  0  0  0  0  5  0  0  0  0  0  0
   10.3682   41.4720   35.8740 O   0  0  0  0  0  1  0  0  0  0  0  0
    9.9557   45.1157   33.2412 C   0  0  2  0  0  0  0  0  0  0  0  0
   11.0744   46.0281   33.4856 N   0  0  0  0  0  0  0  0  0  0  0  0
    8.6701   45.6799   33.8830 C   0  0  0  0  0  0  0  0  0  0  0  0
    7.4385   45.0514   33.3050 C   0  0  0  0  0  0  0  0  0  0  0  0
    6.7185   44.1142   34.0559 O   0  0  0  0  0  0  0  0  0  0  0  0
    7.0604   45.3802   32.1475 O   0  0  0  0  0  0  0  0  0  0  0  0
    5.5589   43.4380   33.5710 C   0  0  0  0  0  0  0  0  0  0  0  0
    5.9363   42.1166   32.9560 C   0  0  0  0  0  0  0  0  0  0  0  0
    5.6498   40.9141   33.6256 C   0  0  0  0  0  0  0  0  0  0  0  0
    6.5759   42.0693   31.7056 C   0  0  0  0  0  0  0  0  0  0  0  0
    5.9808   39.6863   33.0436 C   0  0  0  0  0  0  0  0  0  0  0  0
    6.9153   40.8396   31.1327 C   0  0  0  0  0  0  0  0  0  0  0  0
    6.6141   39.6492   31.7989 C   0  0  0  0  0  0  0  0  0  0  0  0
    8.8136   40.1884   34.2131 O   0  0  0  0  0  0  0  0  0  0  0  0
   11.2375   40.7920   33.3667 O   0  0  0  0  0  0  0  0  0  0  0  0
   10.9124   40.6860   31.9947 C   0  0  0  0  0  0  0  0  0  0  0  0
   11.5160   39.3800   31.4410 C   0  0  0  0  0  0  0  0  0  0  0  0
   12.7479   39.0889   32.0765 O   0  0  0  0  0  0  0  0  0  0  0  0
   10.6041   38.1878   31.6651 C   0  0  0  0  0  0  0  0  0  0  0  0
   12.9407   37.6832   32.0279 C   0  0  0  0  0  0  0  0  0  0  0  0
    9.6364   38.0931   30.6484 O   0  0  0  0  0  0  0  0  0  0  0  0
   11.5823   37.0182   31.6938 C   0  0  0  0  0  0  0  0  0  0  0  0
   13.4907   37.2178   33.3239 N   0  0  0  0  0  0  0  0  0  0  0  0
   11.6142   36.3177   30.4680 O   0  0  0  0  0  0  0  0  0  0  0  0
   14.4761   36.3271   33.5733 C   0  0  0  0  0  0  0  0  0  0  0  0
   13.1177   37.6317   34.5689 C   0  0  0  0  0  0  0  0  0  0  0  0
   15.2066   35.6141   32.6743 N   0  0  0  0  0  0  0  0  0  0  0  0
   14.6730   36.2273   34.9186 C   0  0  0  0  0  0  0  0  0  0  0  0
   13.8222   37.0456   35.5785 N   0  0  0  0  0  0  0  0  0  0  0  0
   16.1638   34.7596   33.1550 C   0  0  0  0  0  0  0  0  0  0  0  0
   15.6514   35.3492   35.4134 C   0  0  0  0  0  0  0  0  0  0  0  0
   16.3792   34.6311   34.5045 N   0  0  0  0  0  0  0  0  0  0  0  0
   15.9002   35.1934   36.8092 N   0  0  0  0  0  0  0  0  0  0  0  0
    9.8122   45.0124   32.1411 H   0  0  0  0  0  0  0  0  0  0  0  0
   10.8415   46.9595   33.0699 H   0  0  0  0  0  0  0  0  0  0  0  0
   11.9036   45.6883   32.9444 H   0  0  0  0  0  0  0  0  0  0  0  0
    8.6043   46.7748   33.7019 H   0  0  0  0  0  0  0  0  0  0  0  0
    8.6897   45.5322   34.9854 H   0  0  0  0  0  0  0  0  0  0  0  0
    5.0081   44.0626   32.8342 H   0  0  0  0  0  0  0  0  0  0  0  0
    4.8688   43.2783   34.4266 H   0  0  0  0  0  0  0  0  0  0  0  0
    5.1644   40.9247   34.5935 H   0  0  0  0  0  0  0  0  0  0  0  0
    6.8054   42.9797   31.1692 H   0  0  0  0  0  0  0  0  0  0  0  0
    5.7523   38.7636   33.5609 H   0  0  0  0  0  0  0  0  0  0  0  0
    7.4089   40.8093   30.1700 H   0  0  0  0  0  0  0  0  0  0  0  0
    6.8709   38.6984   31.3516 H   0  0  0  0  0  0  0  0  0  0  0  0
   11.3821   41.5437   31.4675 H   0  0  0  0  0  0  0  0  0  0  0  0
    9.8223   40.7197   31.7599 H   0  0  0  0  0  0  0  0  0  0  0  0
   11.6986   39.5072   30.3489 H   0  0  0  0  0  0  0  0  0  0  0  0
   10.1083   38.2722   32.6610 H   0  0  0  0  0  0  0  0  0  0  0  0
   13.6810   37.4639   31.2269 H   0  0  0  0  0  0  0  0  0  0  0  0
    9.0214   37.3624   30.9184 H   0  0  0  0  0  0  0  0  0  0  0  0
   11.2840   36.3048   32.4933 H   0  0  0  0  0  0  0  0  0  0  0  0
   11.8846   36.9586   29.7590 H   0  0  0  0  0  0  0  0  0  0  0  0
   12.3361   38.3599   34.7442 H   0  0  0  0  0  0  0  0  0  0  0  0
   16.7573   34.1791   32.4622 H   0  0  0  0  0  0  0  0  0  0  0  0
   16.6362   34.5317   37.1417 H   0  0  0  0  0  0  0  0  0  0  0  0
   15.3529   35.7356   37.5141 H   0  0  0  0  0  0  0  0  0  0  0  0
  1  2  2  0
  1  3  1  0
  3  4  1  0
  4  5  1  0
  6  1  1  0
  7  6  1  0
  6  8  1  0
  8  9  1  0
  9 10  1  0
  9 11  2  0
 10 12  1  0
 12 13  1  0
 13 14  2  0
 15 13  1  0
 14 16  1  0
 17 15  2  0
 16 18  2  0
 18 17  1  0
  4 19  2  0
  4 20  1  0
 21 20  1  0
 21 22  1  0
 22 23  1  0
 22 24  1  0
 23 25  1  0
 24 26  1  0
 24 27  1  0
 27 25  1  0
 25 28  1  0
 27 29  1  0
 30 28  1  0
 31 28  1  0
 32 30  2  0
 30 33  1  0
 34 31  2  0
 35 32  1  0
 33 36  2  0
 33 34  1  0
 37 35  2  0
 37 36  1  0
 36 38  1  0
  6 39  1  6
  7 40  1  0
  7 41  1  0
  8 42  1  0
  8 43  1  0
 12 44  1  0
 12 45  1  0
 14 46  1  0
 15 47  1  0
 16 48  1  0
 17 49  1  0
 18 50  1  0
 21 51  1  0
 21 52  1  0
 22 53  1  0
 24 54  1  0
 25 55  1  0
 26 56  1  0
 27 57  1  0
 29 58  1  0
 31 59  1  0
 35 60  1  0
 38 61  1  0
 38 62  1  0
M  CHG  1   5  -1
M  END
>  <EmbedRMS>  (126) 
0.08717017340646617

$$$$

     RDKit          3D

 62 65  0  0  0  0  0  0  0  0999 V2000
   10.2808   43.7760   33.8098 C   0  0  0  0  0  0  0  0  0  0  0  0
   11.4068   43.5917   34.3592 O   0  0  0  0  0  0  0  0  0  0  0  0
    9.3682   42.7300   33.6997 O   0  0  0  0  0  0  0  0  0  0  0  0
    9.8869   41.2337   34.2833 P   0  0  0  0  0  5  0  0  0  0  0  0
   10.3676   41.4693   35.8737 O   0  0  0  0  0  1  0  0  0  0  0  0
    9.9522   45.1161   33.2455 C   0  0  2  0  0  0  0  0  0  0  0  0
   11.0748   46.0259   33.4811 N   0  0  0  0  0  0  0  0  0  0  0  0
    8.6546   45.6911   33.8556 C   0  0  0  0  0  0  0  0  0  0  0  0
    7.4404   44.9342   33.4099 C   0  0  0  0  0  0  0  0  0  0  0  0
    7.0710   44.9592   32.0603 O   0  0  0  0  0  0  0  0  0  0  0  0
    6.7726   44.2704   34.2492 O   0  0  0  0  0  0  0  0  0  0  0  0
    5.9381   44.2627   31.5463 C   0  0  0  0  0  0  0  0  0  0  0  0
    4.6650   44.9317   31.9874 C   0  0  0  0  0  0  0  0  0  0  0  0
    4.3452   46.2132   31.5104 C   0  0  0  0  0  0  0  0  0  0  0  0
    3.7995   44.2981   32.8950 C   0  0  0  0  0  0  0  0  0  0  0  0
    3.1721   46.8483   31.9298 C   0  0  0  0  0  0  0  0  0  0  0  0
    2.6274   44.9368   33.3121 C   0  0  0  0  0  0  0  0  0  0  0  0
    2.3135   46.2104   32.8295 C   0  0  0  0  0  0  0  0  0  0  0  0
    8.8087   40.1914   34.2082 O   0  0  0  0  0  0  0  0  0  0  0  0
   11.2377   40.7906   33.3655 O   0  0  0  0  0  0  0  0  0  0  0  0
   10.9135   40.6843   31.9930 C   0  0  0  0  0  0  0  0  0  0  0  0
   11.5174   39.3773   31.4393 C   0  0  0  0  0  0  0  0  0  0  0  0
   12.7477   39.0869   32.0755 O   0  0  0  0  0  0  0  0  0  0  0  0
   10.6069   38.1851   31.6657 C   0  0  0  0  0  0  0  0  0  0  0  0
   12.9371   37.6811   32.0290 C   0  0  0  0  0  0  0  0  0  0  0  0
    9.6403   38.0882   30.6475 O   0  0  0  0  0  0  0  0  0  0  0  0
   11.5788   37.0134   31.7045 C   0  0  0  0  0  0  0  0  0  0  0  0
   13.4915   37.2182   33.3239 N   0  0  0  0  0  0  0  0  0  0  0  0
   11.6124   36.3389   30.4673 O   0  0  0  0  0  0  0  0  0  0  0  0
   14.4766   36.3272   33.5730 C   0  0  0  0  0  0  0  0  0  0  0  0
   13.1184   37.6317   34.5690 C   0  0  0  0  0  0  0  0  0  0  0  0
   15.2066   35.6139   32.6740 N   0  0  0  0  0  0  0  0  0  0  0  0
   14.6735   36.2274   34.9184 C   0  0  0  0  0  0  0  0  0  0  0  0
   13.8227   37.0455   35.5785 N   0  0  0  0  0  0  0  0  0  0  0  0
   16.1637   34.7593   33.1548 C   0  0  0  0  0  0  0  0  0  0  0  0
   15.6517   35.3491   35.4132 C   0  0  0  0  0  0  0  0  0  0  0  0
   16.3792   34.6308   34.5043 N   0  0  0  0  0  0  0  0  0  0  0  0
   15.9004   35.1932   36.8090 N   0  0  0  0  0  0  0  0  0  0  0  0
    9.8227   45.0002   32.1463 H   0  0  0  0  0  0  0  0  0  0  0  0
   11.1120   46.2831   34.4954 H   0  0  0  0  0  0  0  0  0  0  0  0
   10.9083   46.9081   32.9440 H   0  0  0  0  0  0  0  0  0  0  0  0
    8.7210   45.6869   34.9665 H   0  0  0  0  0  0  0  0  0  0  0  0
    8.5313   46.7471   33.5323 H   0  0  0  0  0  0  0  0  0  0  0  0
    5.9733   43.1972   31.8633 H   0  0  0  0  0  0  0  0  0  0  0  0
    5.9862   44.2773   30.4370 H   0  0  0  0  0  0  0  0  0  0  0  0
    5.0052   46.7189   30.8163 H   0  0  0  0  0  0  0  0  0  0  0  0
    4.0319   43.3134   33.2811 H   0  0  0  0  0  0  0  0  0  0  0  0
    2.9295   47.8356   31.5586 H   0  0  0  0  0  0  0  0  0  0  0  0
    1.9631   44.4450   34.0108 H   0  0  0  0  0  0  0  0  0  0  0  0
    1.4063   46.7035   33.1538 H   0  0  0  0  0  0  0  0  0  0  0  0
   11.3846   41.5414   31.4660 H   0  0  0  0  0  0  0  0  0  0  0  0
    9.8232   40.7188   31.7574 H   0  0  0  0  0  0  0  0  0  0  0  0
   11.7006   39.5017   30.3470 H   0  0  0  0  0  0  0  0  0  0  0  0
   10.1097   38.2752   32.6606 H   0  0  0  0  0  0  0  0  0  0  0  0
   13.6713   37.4591   31.2227 H   0  0  0  0  0  0  0  0  0  0  0  0
    9.0030   37.3838   30.9353 H   0  0  0  0  0  0  0  0  0  0  0  0
   11.2705   36.3048   32.5088 H   0  0  0  0  0  0  0  0  0  0  0  0
   12.1442   35.5136   30.6141 H   0  0  0  0  0  0  0  0  0  0  0  0
   12.3361   38.3592   34.7444 H   0  0  0  0  0  0  0  0  0  0  0  0
   16.7571   34.1787   32.4620 H   0  0  0  0  0  0  0  0  0  0  0  0
   16.6362   34.5314   37.1415 H   0  0  0  0  0  0  0  0  0  0  0  0
   15.3531   35.7355   37.5139 H   0  0  0  0  0  0  0  0  0  0  0  0
  1  2  2  0
  1  3  1  0
  3  4  1  0
  4  5  1  0
  6  1  1  0
  7  6  1  0
  6  8  1  0
  8  9  1  0
  9 10  1  0
  9 11  2  0
 10 12  1  0
 12 13  1  0
 13 14  2  0
 15 13  1  0
 14 16  1  0
 17 15  2  0
 16 18  2  0
 18 17  1  0
  4 19  2  0
  4 20  1  0
 21 20  1  0
 21 22  1  0
 22 23  1  0
 22 24  1  0
 23 25  1  0
 24 26  1  0
 24 27  1  0
 27 25  1  0
 25 28  1  0
 27 29  1  0
 30 28  1  0
 31 28  1  0
 32 30  2  0
 30 33  1  0
 34 31  2  0
 35 32  1  0
 33 36  2  0
 33 34  1  0
 37 35  2  0
 37 36  1  0
 36 38  1  0
  6 39  1  6
  7 40  1  0
  7 41  1  0
  8 42  1  0
  8 43  1  0
 12 44  1  0
 12 45  1  0
 14 46  1  0
 15 47  1  0
 16 48  1  0
 17 49  1  0
 18 50  1  0
 21 51  1  0
 21 52  1  0
 22 53  1  0
 24 54  1  0
 25 55  1  0
 26 56  1  0
 27 57  1  0
 29 58  1  0
 31 59  1  0
 35 60  1  0
 38 61  1  0
 38 62  1  0
M  CHG  1   5  -1
M  END
>  <EmbedRMS>  (127) 
0.08877359032773537

$$$$

     RDKit          3D

 62 65  0  0  0  0  0  0  0  0999 V2000
   10.2862   43.7717   33.8042 C   0  0  0  0  0  0  0  0  0  0  0  0
   11.4114   43.5869   34.3544 O   0  0  0  0  0  0  0  0  0  0  0  0
    9.3672   42.7309   33.6999 O   0  0  0  0  0  0  0  0  0  0  0  0
    9.8851   41.2343   34.2847 P   0  0  0  0  0  5  0  0  0  0  0  0
   10.3653   41.4709   35.8751 O   0  0  0  0  0  1  0  0  0  0  0  0
    9.9564   45.1118   33.2473 C   0  0  2  0  0  0  0  0  0  0  0  0
   11.0673   46.0363   33.4853 N   0  0  0  0  0  0  0  0  0  0  0  0
    8.6229   45.6578   33.8066 C   0  0  0  0  0  0  0  0  0  0  0  0
    8.6180   45.7710   35.3030 C   0  0  0  0  0  0  0  0  0  0  0  0
    8.4058   44.6248   36.0775 O   0  0  0  0  0  0  0  0  0  0  0  0
    8.8345   46.8875   35.8485 O   0  0  0  0  0  0  0  0  0  0  0  0
    8.3930   44.6325   37.5026 C   0  0  0  0  0  0  0  0  0  0  0  0
    7.1365   45.2835   38.0118 C   0  0  0  0  0  0  0  0  0  0  0  0
    5.8945   44.6587   37.8139 C   0  0  0  0  0  0  0  0  0  0  0  0
    7.1865   46.5282   38.6615 C   0  0  0  0  0  0  0  0  0  0  0  0
    4.7201   45.2670   38.2680 C   0  0  0  0  0  0  0  0  0  0  0  0
    6.0096   47.1332   39.1139 C   0  0  0  0  0  0  0  0  0  0  0  0
    4.7775   46.5029   38.9181 C   0  0  0  0  0  0  0  0  0  0  0  0
    8.8074   40.1916   34.2093 O   0  0  0  0  0  0  0  0  0  0  0  0
   11.2369   40.7896   33.3689 O   0  0  0  0  0  0  0  0  0  0  0  0
   10.9159   40.6889   31.9956 C   0  0  0  0  0  0  0  0  0  0  0  0
   11.5251   39.3873   31.4367 C   0  0  0  0  0  0  0  0  0  0  0  0
   12.7486   39.0879   32.0804 O   0  0  0  0  0  0  0  0  0  0  0  0
   10.6100   38.1909   31.6471 C   0  0  0  0  0  0  0  0  0  0  0  0
   12.9348   37.6808   32.0292 C   0  0  0  0  0  0  0  0  0  0  0  0
    9.6126   38.0874   30.6547 O   0  0  0  0  0  0  0  0  0  0  0  0
   11.5767   37.0133   31.7026 C   0  0  0  0  0  0  0  0  0  0  0  0
   13.4901   37.2165   33.3236 N   0  0  0  0  0  0  0  0  0  0  0  0
   11.6322   36.3231   30.4741 O   0  0  0  0  0  0  0  0  0  0  0  0
   14.4762   36.3266   33.5728 C   0  0  0  0  0  0  0  0  0  0  0  0
   13.1179   37.6307   34.5689 C   0  0  0  0  0  0  0  0  0  0  0  0
   15.2065   35.6135   32.6739 N   0  0  0  0  0  0  0  0  0  0  0  0
   14.6736   36.2272   34.9182 C   0  0  0  0  0  0  0  0  0  0  0  0
   13.8228   37.0453   35.5783 N   0  0  0  0  0  0  0  0  0  0  0  0
   16.1640   34.7593   33.1547 C   0  0  0  0  0  0  0  0  0  0  0  0
   15.6518   35.3491   35.4131 C   0  0  0  0  0  0  0  0  0  0  0  0
   16.3795   34.6309   34.5042 N   0  0  0  0  0  0  0  0  0  0  0  0
   15.9004   35.1933   36.8089 N   0  0  0  0  0  0  0  0  0  0  0  0
    9.8390   44.9891   32.1482 H   0  0  0  0  0  0  0  0  0  0  0  0
   11.1548   46.2380   34.5080 H   0  0  0  0  0  0  0  0  0  0  0  0
   10.8568   46.9422   33.0066 H   0  0  0  0  0  0  0  0  0  0  0  0
    7.7921   44.9862   33.4995 H   0  0  0  0  0  0  0  0  0  0  0  0
    8.4145   46.6534   33.3574 H   0  0  0  0  0  0  0  0  0  0  0  0
    9.3044   45.1407   37.8876 H   0  0  0  0  0  0  0  0  0  0  0  0
    8.4258   43.5824   37.8626 H   0  0  0  0  0  0  0  0  0  0  0  0
    5.8375   43.7031   37.3072 H   0  0  0  0  0  0  0  0  0  0  0  0
    8.1332   47.0308   38.8159 H   0  0  0  0  0  0  0  0  0  0  0  0
    3.7652   44.7810   38.1142 H   0  0  0  0  0  0  0  0  0  0  0  0
    6.0525   48.0917   39.6149 H   0  0  0  0  0  0  0  0  0  0  0  0
    3.8676   46.9728   39.2683 H   0  0  0  0  0  0  0  0  0  0  0  0
    9.8259   40.7203   31.7582 H   0  0  0  0  0  0  0  0  0  0  0  0
   11.3845   41.5507   31.4741 H   0  0  0  0  0  0  0  0  0  0  0  0
   11.7271   39.5289   30.3504 H   0  0  0  0  0  0  0  0  0  0  0  0
   10.1121   38.2730   32.6390 H   0  0  0  0  0  0  0  0  0  0  0  0
   13.6685   37.4592   31.2224 H   0  0  0  0  0  0  0  0  0  0  0  0
   10.0514   38.1111   29.7648 H   0  0  0  0  0  0  0  0  0  0  0  0
   11.2802   36.3129   32.5195 H   0  0  0  0  0  0  0  0  0  0  0  0
   10.8625   35.6961   30.4645 H   0  0  0  0  0  0  0  0  0  0  0  0
   12.3356   38.3581   34.7445 H   0  0  0  0  0  0  0  0  0  0  0  0
   16.7574   34.1787   32.4619 H   0  0  0  0  0  0  0  0  0  0  0  0
   15.3531   35.7355   37.5138 H   0  0  0  0  0  0  0  0  0  0  0  0
   16.6364   34.5315   37.1415 H   0  0  0  0  0  0  0  0  0  0  0  0
  1  2  2  0
  1  3  1  0
  3  4  1  0
  4  5  1  0
  6  1  1  0
  7  6  1  0
  6  8  1  0
  8  9  1  0
  9 10  1  0
  9 11  2  0
 10 12  1  0
 12 13  1  0
 13 14  2  0
 15 13  1  0
 14 16  1  0
 17 15  2  0
 16 18  2  0
 18 17  1  0
  4 19  2  0
  4 20  1  0
 21 20  1  0
 21 22  1  0
 22 23  1  0
 22 24  1  0
 23 25  1  0
 24 26  1  0
 24 27  1  0
 27 25  1  0
 25 28  1  0
 27 29  1  0
 30 28  1  0
 31 28  1  0
 32 30  2  0
 30 33  1  0
 34 31  2  0
 35 32  1  0
 33 36  2  0
 33 34  1  0
 37 35  2  0
 37 36  1  0
 36 38  1  0
  6 39  1  6
  7 40  1  0
  7 41  1  0
  8 42  1  0
  8 43  1  0
 12 44  1  0
 12 45  1  0
 14 46  1  0
 15 47  1  0
 16 48  1  0
 17 49  1  0
 18 50  1  0
 21 51  1  0
 21 52  1  0
 22 53  1  0
 24 54  1  0
 25 55  1  0
 26 56  1  0
 27 57  1  0
 29 58  1  0
 31 59  1  0
 35 60  1  0
 38 61  1  0
 38 62  1  0
M  CHG  1   5  -1
M  END
>  <EmbedRMS>  (128) 
0.08802855309170755

$$$$

     RDKit          3D

 62 65  0  0  0  0  0  0  0  0999 V2000
   10.2849   43.7725   33.8069 C   0  0  0  0  0  0  0  0  0  0  0  0
   11.4105   43.5874   34.3563 O   0  0  0  0  0  0  0  0  0  0  0  0
    9.3664   42.7313   33.7017 O   0  0  0  0  0  0  0  0  0  0  0  0
    9.8852   41.2342   34.2849 P   0  0  0  0  0  5  0  0  0  0  0  0
   10.3653   41.4697   35.8754 O   0  0  0  0  0  1  0  0  0  0  0  0
    9.9582   45.1107   33.2439 C   0  0  2  0  0  0  0  0  0  0  0  0
   11.0676   46.0366   33.4846 N   0  0  0  0  0  0  0  0  0  0  0  0
    8.6199   45.6581   33.7898 C   0  0  0  0  0  0  0  0  0  0  0  0
    8.6115   45.8100   35.2823 C   0  0  0  0  0  0  0  0  0  0  0  0
    8.9602   47.0401   35.8510 O   0  0  0  0  0  0  0  0  0  0  0  0
    8.3191   44.8225   36.0108 O   0  0  0  0  0  0  0  0  0  0  0  0
    8.9775   47.2752   37.2572 C   0  0  0  0  0  0  0  0  0  0  0  0
    7.5747   47.3318   37.7977 C   0  0  0  0  0  0  0  0  0  0  0  0
    7.0900   46.3181   38.6412 C   0  0  0  0  0  0  0  0  0  0  0  0
    6.7273   48.3919   37.4370 C   0  0  0  0  0  0  0  0  0  0  0  0
    5.7780   46.3710   39.1225 C   0  0  0  0  0  0  0  0  0  0  0  0
    5.4161   48.4411   37.9205 C   0  0  0  0  0  0  0  0  0  0  0  0
    4.9420   47.4319   38.7631 C   0  0  0  0  0  0  0  0  0  0  0  0
    8.8081   40.1911   34.2084 O   0  0  0  0  0  0  0  0  0  0  0  0
   11.2380   40.7910   33.3698 O   0  0  0  0  0  0  0  0  0  0  0  0
   10.9185   40.6906   31.9963 C   0  0  0  0  0  0  0  0  0  0  0  0
   11.5174   39.3824   31.4413 C   0  0  0  0  0  0  0  0  0  0  0  0
   12.7494   39.0893   32.0757 O   0  0  0  0  0  0  0  0  0  0  0  0
   10.6036   38.1899   31.6660 C   0  0  0  0  0  0  0  0  0  0  0  0
   12.9401   37.6834   32.0276 C   0  0  0  0  0  0  0  0  0  0  0  0
    9.6376   38.0785   30.6474 O   0  0  0  0  0  0  0  0  0  0  0  0
   11.5804   37.0204   31.6937 C   0  0  0  0  0  0  0  0  0  0  0  0
   13.4902   37.2177   33.3237 N   0  0  0  0  0  0  0  0  0  0  0  0
   11.6118   36.3193   30.4680 O   0  0  0  0  0  0  0  0  0  0  0  0
   14.4759   36.3271   33.5731 C   0  0  0  0  0  0  0  0  0  0  0  0
   13.1176   37.6317   34.5688 C   0  0  0  0  0  0  0  0  0  0  0  0
   15.2064   35.6142   32.6742 N   0  0  0  0  0  0  0  0  0  0  0  0
   14.6729   36.2274   34.9184 C   0  0  0  0  0  0  0  0  0  0  0  0
   13.8221   37.0457   35.5783 N   0  0  0  0  0  0  0  0  0  0  0  0
   16.1637   34.7597   33.1549 C   0  0  0  0  0  0  0  0  0  0  0  0
   15.6514   35.3493   35.4133 C   0  0  0  0  0  0  0  0  0  0  0  0
   16.3791   34.6312   34.5044 N   0  0  0  0  0  0  0  0  0  0  0  0
   15.9001   35.1935   36.8091 N   0  0  0  0  0  0  0  0  0  0  0  0
    9.8485   44.9835   32.1445 H   0  0  0  0  0  0  0  0  0  0  0  0
   11.1600   46.2305   34.5083 H   0  0  0  0  0  0  0  0  0  0  0  0
   10.8537   46.9455   33.0132 H   0  0  0  0  0  0  0  0  0  0  0  0
    7.7916   44.9799   33.4887 H   0  0  0  0  0  0  0  0  0  0  0  0
    8.4107   46.6458   33.3253 H   0  0  0  0  0  0  0  0  0  0  0  0
    9.4762   48.2488   37.4479 H   0  0  0  0  0  0  0  0  0  0  0  0
    9.5814   46.4911   37.7648 H   0  0  0  0  0  0  0  0  0  0  0  0
    7.7245   45.4874   38.9241 H   0  0  0  0  0  0  0  0  0  0  0  0
    7.0824   49.1771   36.7809 H   0  0  0  0  0  0  0  0  0  0  0  0
    5.4088   45.5884   39.7727 H   0  0  0  0  0  0  0  0  0  0  0  0
    4.7670   49.2608   37.6406 H   0  0  0  0  0  0  0  0  0  0  0  0
    3.9266   47.4708   39.1360 H   0  0  0  0  0  0  0  0  0  0  0  0
    9.8306   40.7396   31.7564 H   0  0  0  0  0  0  0  0  0  0  0  0
   11.3992   41.5455   31.4745 H   0  0  0  0  0  0  0  0  0  0  0  0
   11.6988   39.5093   30.3491 H   0  0  0  0  0  0  0  0  0  0  0  0
   10.1129   38.2588   32.6664 H   0  0  0  0  0  0  0  0  0  0  0  0
   13.6800   37.4629   31.2265 H   0  0  0  0  0  0  0  0  0  0  0  0
    8.8952   38.6908   30.8892 H   0  0  0  0  0  0  0  0  0  0  0  0
   11.2831   36.3060   32.4929 H   0  0  0  0  0  0  0  0  0  0  0  0
   11.8859   36.9590   29.7593 H   0  0  0  0  0  0  0  0  0  0  0  0
   12.3360   38.3600   34.7442 H   0  0  0  0  0  0  0  0  0  0  0  0
   16.7572   34.1793   32.4621 H   0  0  0  0  0  0  0  0  0  0  0  0
   15.3528   35.7356   37.5140 H   0  0  0  0  0  0  0  0  0  0  0  0
   16.6362   34.5318   37.1416 H   0  0  0  0  0  0  0  0  0  0  0  0
  1  2  2  0
  1  3  1  0
  3  4  1  0
  4  5  1  0
  6  1  1  0
  7  6  1  0
  6  8  1  0
  8  9  1  0
  9 10  1  0
  9 11  2  0
 10 12  1  0
 12 13  1  0
 13 14  2  0
 15 13  1  0
 14 16  1  0
 17 15  2  0
 16 18  2  0
 18 17  1  0
  4 19  2  0
  4 20  1  0
 21 20  1  0
 21 22  1  0
 22 23  1  0
 22 24  1  0
 23 25  1  0
 24 26  1  0
 24 27  1  0
 27 25  1  0
 25 28  1  0
 27 29  1  0
 30 28  1  0
 31 28  1  0
 32 30  2  0
 30 33  1  0
 34 31  2  0
 35 32  1  0
 33 36  2  0
 33 34  1  0
 37 35  2  0
 37 36  1  0
 36 38  1  0
  6 39  1  6
  7 40  1  0
  7 41  1  0
  8 42  1  0
  8 43  1  0
 12 44  1  0
 12 45  1  0
 14 46  1  0
 15 47  1  0
 16 48  1  0
 17 49  1  0
 18 50  1  0
 21 51  1  0
 21 52  1  0
 22 53  1  0
 24 54  1  0
 25 55  1  0
 26 56  1  0
 27 57  1  0
 29 58  1  0
 31 59  1  0
 35 60  1  0
 38 61  1  0
 38 62  1  0
M  CHG  1   5  -1
M  END
>  <EmbedRMS>  (129) 
0.08819871902465493

$$$$

     RDKit          3D

 62 65  0  0  0  0  0  0  0  0999 V2000
   10.2856   43.7717   33.8041 C   0  0  0  0  0  0  0  0  0  0  0  0
   11.4104   43.5871   34.3557 O   0  0  0  0  0  0  0  0  0  0  0  0
    9.3667   42.7311   33.6998 O   0  0  0  0  0  0  0  0  0  0  0  0
    9.8855   41.2343   34.2836 P   0  0  0  0  0  5  0  0  0  0  0  0
   10.3668   41.4698   35.8736 O   0  0  0  0  0  1  0  0  0  0  0  0
    9.9554   45.1130   33.2485 C   0  0  2  0  0  0  0  0  0  0  0  0
   11.0691   46.0343   33.4837 N   0  0  0  0  0  0  0  0  0  0  0  0
    8.6220   45.6646   33.8081 C   0  0  0  0  0  0  0  0  0  0  0  0
    8.5539   45.6247   35.3069 C   0  0  0  0  0  0  0  0  0  0  0  0
    9.1696   46.6326   36.0566 O   0  0  0  0  0  0  0  0  0  0  0  0
    7.9787   44.6587   35.8791 O   0  0  0  0  0  0  0  0  0  0  0  0
    9.3733   46.5392   37.4646 C   0  0  0  0  0  0  0  0  0  0  0  0
   10.4007   45.4822   37.7688 C   0  0  0  0  0  0  0  0  0  0  0  0
   10.0211   44.2601   38.3490 C   0  0  0  0  0  0  0  0  0  0  0  0
   11.7441   45.6889   37.4160 C   0  0  0  0  0  0  0  0  0  0  0  0
   10.9755   43.2645   38.5801 C   0  0  0  0  0  0  0  0  0  0  0  0
   12.6946   44.6894   37.6453 C   0  0  0  0  0  0  0  0  0  0  0  0
   12.3107   43.4781   38.2270 C   0  0  0  0  0  0  0  0  0  0  0  0
    8.8079   40.1915   34.2088 O   0  0  0  0  0  0  0  0  0  0  0  0
   11.2370   40.7905   33.3664 O   0  0  0  0  0  0  0  0  0  0  0  0
   10.9142   40.6851   31.9935 C   0  0  0  0  0  0  0  0  0  0  0  0
   11.5165   39.3774   31.4396 C   0  0  0  0  0  0  0  0  0  0  0  0
   12.7472   39.0855   32.0740 O   0  0  0  0  0  0  0  0  0  0  0  0
   10.6047   38.1868   31.6671 C   0  0  0  0  0  0  0  0  0  0  0  0
   12.9345   37.6792   32.0283 C   0  0  0  0  0  0  0  0  0  0  0  0
    9.6378   38.0918   30.6489 O   0  0  0  0  0  0  0  0  0  0  0  0
   11.5761   37.0130   31.7057 C   0  0  0  0  0  0  0  0  0  0  0  0
   13.4909   37.2178   33.3234 N   0  0  0  0  0  0  0  0  0  0  0  0
   11.6234   36.3372   30.4684 O   0  0  0  0  0  0  0  0  0  0  0  0
   14.4764   36.3272   33.5728 C   0  0  0  0  0  0  0  0  0  0  0  0
   13.1182   37.6317   34.5686 C   0  0  0  0  0  0  0  0  0  0  0  0
   15.2066   35.6138   32.6739 N   0  0  0  0  0  0  0  0  0  0  0  0
   14.6735   36.2276   34.9182 C   0  0  0  0  0  0  0  0  0  0  0  0
   13.8227   37.0458   35.5782 N   0  0  0  0  0  0  0  0  0  0  0  0
   16.1638   34.7593   33.1548 C   0  0  0  0  0  0  0  0  0  0  0  0
   15.6516   35.3493   35.4131 C   0  0  0  0  0  0  0  0  0  0  0  0
   16.3792   34.6309   34.5043 N   0  0  0  0  0  0  0  0  0  0  0  0
   15.9002   35.1934   36.8090 N   0  0  0  0  0  0  0  0  0  0  0  0
    9.8377   44.9923   32.1492 H   0  0  0  0  0  0  0  0  0  0  0  0
   11.1618   46.2342   34.5051 H   0  0  0  0  0  0  0  0  0  0  0  0
   10.8620   46.9413   33.0056 H   0  0  0  0  0  0  0  0  0  0  0  0
    7.7800   45.0694   33.3910 H   0  0  0  0  0  0  0  0  0  0  0  0
    8.4762   46.7116   33.4659 H   0  0  0  0  0  0  0  0  0  0  0  0
    8.4077   46.3305   37.9754 H   0  0  0  0  0  0  0  0  0  0  0  0
    9.7394   47.5192   37.8371 H   0  0  0  0  0  0  0  0  0  0  0  0
    8.9880   44.0748   38.6152 H   0  0  0  0  0  0  0  0  0  0  0  0
   12.0518   46.6200   36.9564 H   0  0  0  0  0  0  0  0  0  0  0  0
   10.6784   42.3241   39.0259 H   0  0  0  0  0  0  0  0  0  0  0  0
   13.7280   44.8525   37.3684 H   0  0  0  0  0  0  0  0  0  0  0  0
   13.0469   42.7043   38.4015 H   0  0  0  0  0  0  0  0  0  0  0  0
    9.8242   40.7213   31.7570 H   0  0  0  0  0  0  0  0  0  0  0  0
   11.3871   41.5417   31.4673 H   0  0  0  0  0  0  0  0  0  0  0  0
   11.6986   39.5015   30.3470 H   0  0  0  0  0  0  0  0  0  0  0  0
   10.1095   38.2771   32.6630 H   0  0  0  0  0  0  0  0  0  0  0  0
   13.6672   37.4546   31.2213 H   0  0  0  0  0  0  0  0  0  0  0  0
    8.9779   37.4158   30.9534 H   0  0  0  0  0  0  0  0  0  0  0  0
   11.2861   36.3041   32.5177 H   0  0  0  0  0  0  0  0  0  0  0  0
   10.8690   35.6919   30.4657 H   0  0  0  0  0  0  0  0  0  0  0  0
   12.3358   38.3590   34.7440 H   0  0  0  0  0  0  0  0  0  0  0  0
   16.7571   34.1786   32.4621 H   0  0  0  0  0  0  0  0  0  0  0  0
   16.6361   34.5316   37.1415 H   0  0  0  0  0  0  0  0  0  0  0  0
   15.3530   35.7358   37.5138 H   0  0  0  0  0  0  0  0  0  0  0  0
  1  2  2  0
  1  3  1  0
  3  4  1  0
  4  5  1  0
  6  1  1  0
  7  6  1  0
  6  8  1  0
  8  9  1  0
  9 10  1  0
  9 11  2  0
 10 12  1  0
 12 13  1  0
 13 14  2  0
 15 13  1  0
 14 16  1  0
 17 15  2  0
 16 18  2  0
 18 17  1  0
  4 19  2  0
  4 20  1  0
 21 20  1  0
 21 22  1  0
 22 23  1  0
 22 24  1  0
 23 25  1  0
 24 26  1  0
 24 27  1  0
 27 25  1  0
 25 28  1  0
 27 29  1  0
 30 28  1  0
 31 28  1  0
 32 30  2  0
 30 33  1  0
 34 31  2  0
 35 32  1  0
 33 36  2  0
 33 34  1  0
 37 35  2  0
 37 36  1  0
 36 38  1  0
  6 39  1  6
  7 40  1  0
  7 41  1  0
  8 42  1  0
  8 43  1  0
 12 44  1  0
 12 45  1  0
 14 46  1  0
 15 47  1  0
 16 48  1  0
 17 49  1  0
 18 50  1  0
 21 51  1  0
 21 52  1  0
 22 53  1  0
 24 54  1  0
 25 55  1  0
 26 56  1  0
 27 57  1  0
 29 58  1  0
 31 59  1  0
 35 60  1  0
 38 61  1  0
 38 62  1  0
M  CHG  1   5  -1
M  END
>  <EmbedRMS>  (130) 
0.08881865464438757

$$$$

     RDKit          3D

 62 65  0  0  0  0  0  0  0  0999 V2000
   10.2844   43.7742   33.8068 C   0  0  0  0  0  0  0  0  0  0  0  0
   11.4069   43.5902   34.3636 O   0  0  0  0  0  0  0  0  0  0  0  0
    9.3680   42.7310   33.6989 O   0  0  0  0  0  0  0  0  0  0  0  0
    9.8860   41.2342   34.2839 P   0  0  0  0  0  5  0  0  0  0  0  0
   10.3655   41.4697   35.8747 O   0  0  0  0  0  1  0  0  0  0  0  0
    9.9492   45.1163   33.2549 C   0  0  2  0  0  0  0  0  0  0  0  0
   11.0754   46.0282   33.4732 N   0  0  0  0  0  0  0  0  0  0  0  0
    8.6775   45.6527   33.9422 C   0  0  0  0  0  0  0  0  0  0  0  0
    8.1889   46.9101   33.2930 C   0  0  0  0  0  0  0  0  0  0  0  0
    8.4675   48.1453   33.8887 O   0  0  0  0  0  0  0  0  0  0  0  0
    7.5607   46.8470   32.2010 O   0  0  0  0  0  0  0  0  0  0  0  0
    8.1704   49.3954   33.2711 C   0  0  0  0  0  0  0  0  0  0  0  0
    9.1117   49.6453   32.1247 C   0  0  0  0  0  0  0  0  0  0  0  0
   10.4711   49.8924   32.3762 C   0  0  0  0  0  0  0  0  0  0  0  0
    8.6547   49.5931   30.7972 C   0  0  0  0  0  0  0  0  0  0  0  0
   11.3586   50.0932   31.3145 C   0  0  0  0  0  0  0  0  0  0  0  0
    9.5454   49.7954   29.7383 C   0  0  0  0  0  0  0  0  0  0  0  0
   10.8960   50.0457   29.9965 C   0  0  0  0  0  0  0  0  0  0  0  0
    8.8086   40.1912   34.2076 O   0  0  0  0  0  0  0  0  0  0  0  0
   11.2386   40.7906   33.3693 O   0  0  0  0  0  0  0  0  0  0  0  0
   10.9192   40.6905   31.9958 C   0  0  0  0  0  0  0  0  0  0  0  0
   11.5177   39.3823   31.4410 C   0  0  0  0  0  0  0  0  0  0  0  0
   12.7496   39.0891   32.0754 O   0  0  0  0  0  0  0  0  0  0  0  0
   10.6037   38.1899   31.6659 C   0  0  0  0  0  0  0  0  0  0  0  0
   12.9401   37.6832   32.0276 C   0  0  0  0  0  0  0  0  0  0  0  0
    9.6377   38.0785   30.6474 O   0  0  0  0  0  0  0  0  0  0  0  0
   11.5803   37.0203   31.6937 C   0  0  0  0  0  0  0  0  0  0  0  0
   13.4902   37.2177   33.3237 N   0  0  0  0  0  0  0  0  0  0  0  0
   11.6117   36.3192   30.4680 O   0  0  0  0  0  0  0  0  0  0  0  0
   14.4759   36.3271   33.5731 C   0  0  0  0  0  0  0  0  0  0  0  0
   13.1176   37.6317   34.5688 C   0  0  0  0  0  0  0  0  0  0  0  0
   15.2064   35.6141   32.6742 N   0  0  0  0  0  0  0  0  0  0  0  0
   14.6729   36.2274   34.9184 C   0  0  0  0  0  0  0  0  0  0  0  0
   13.8221   37.0457   35.5783 N   0  0  0  0  0  0  0  0  0  0  0  0
   16.1637   34.7596   33.1549 C   0  0  0  0  0  0  0  0  0  0  0  0
   15.6514   35.3493   35.4133 C   0  0  0  0  0  0  0  0  0  0  0  0
   16.3791   34.6312   34.5044 N   0  0  0  0  0  0  0  0  0  0  0  0
   15.9001   35.1935   36.8091 N   0  0  0  0  0  0  0  0  0  0  0  0
    9.7637   45.0050   32.1623 H   0  0  0  0  0  0  0  0  0  0  0  0
   10.8476   46.9535   33.0439 H   0  0  0  0  0  0  0  0  0  0  0  0
   11.8965   45.6754   32.9282 H   0  0  0  0  0  0  0  0  0  0  0  0
    8.8826   45.8471   35.0179 H   0  0  0  0  0  0  0  0  0  0  0  0
    7.8638   44.8966   33.8849 H   0  0  0  0  0  0  0  0  0  0  0  0
    8.2963   50.2021   34.0238 H   0  0  0  0  0  0  0  0  0  0  0  0
    7.1082   49.4148   32.9418 H   0  0  0  0  0  0  0  0  0  0  0  0
   10.8424   49.9233   33.3932 H   0  0  0  0  0  0  0  0  0  0  0  0
    7.6126   49.3926   30.5816 H   0  0  0  0  0  0  0  0  0  0  0  0
   12.4055   50.2827   31.5135 H   0  0  0  0  0  0  0  0  0  0  0  0
    9.1891   49.7551   28.7170 H   0  0  0  0  0  0  0  0  0  0  0  0
   11.5843   50.2003   29.1757 H   0  0  0  0  0  0  0  0  0  0  0  0
   11.4002   41.5453   31.4742 H   0  0  0  0  0  0  0  0  0  0  0  0
    9.8313   40.7398   31.7557 H   0  0  0  0  0  0  0  0  0  0  0  0
   11.6991   39.5089   30.3487 H   0  0  0  0  0  0  0  0  0  0  0  0
   10.1131   38.2590   32.6664 H   0  0  0  0  0  0  0  0  0  0  0  0
   13.6800   37.4625   31.2265 H   0  0  0  0  0  0  0  0  0  0  0  0
    8.8953   38.6909   30.8891 H   0  0  0  0  0  0  0  0  0  0  0  0
   11.2830   36.3060   32.4929 H   0  0  0  0  0  0  0  0  0  0  0  0
   11.8859   36.9588   29.7593 H   0  0  0  0  0  0  0  0  0  0  0  0
   12.3360   38.3600   34.7441 H   0  0  0  0  0  0  0  0  0  0  0  0
   16.7572   34.1792   32.4621 H   0  0  0  0  0  0  0  0  0  0  0  0
   16.6362   34.5318   37.1416 H   0  0  0  0  0  0  0  0  0  0  0  0
   15.3528   35.7357   37.5140 H   0  0  0  0  0  0  0  0  0  0  0  0
  1  2  2  0
  1  3  1  0
  3  4  1  0
  4  5  1  0
  6  1  1  0
  7  6  1  0
  6  8  1  0
  8  9  1  0
  9 10  1  0
  9 11  2  0
 10 12  1  0
 12 13  1  0
 13 14  2  0
 15 13  1  0
 14 16  1  0
 17 15  2  0
 16 18  2  0
 18 17  1  0
  4 19  2  0
  4 20  1  0
 21 20  1  0
 21 22  1  0
 22 23  1  0
 22 24  1  0
 23 25  1  0
 24 26  1  0
 24 27  1  0
 27 25  1  0
 25 28  1  0
 27 29  1  0
 30 28  1  0
 31 28  1  0
 32 30  2  0
 30 33  1  0
 34 31  2  0
 35 32  1  0
 33 36  2  0
 33 34  1  0
 37 35  2  0
 37 36  1  0
 36 38  1  0
  6 39  1  6
  7 40  1  0
  7 41  1  0
  8 42  1  0
  8 43  1  0
 12 44  1  0
 12 45  1  0
 14 46  1  0
 15 47  1  0
 16 48  1  0
 17 49  1  0
 18 50  1  0
 21 51  1  0
 21 52  1  0
 22 53  1  0
 24 54  1  0
 25 55  1  0
 26 56  1  0
 27 57  1  0
 29 58  1  0
 31 59  1  0
 35 60  1  0
 38 61  1  0
 38 62  1  0
M  CHG  1   5  -1
M  END
>  <EmbedRMS>  (131) 
0.08840187166664204

$$$$

     RDKit          3D

 62 65  0  0  0  0  0  0  0  0999 V2000
   10.2821   43.7752   33.8088 C   0  0  0  0  0  0  0  0  0  0  0  0
   11.4051   43.5917   34.3647 O   0  0  0  0  0  0  0  0  0  0  0  0
    9.3709   42.7286   33.6950 O   0  0  0  0  0  0  0  0  0  0  0  0
    9.8864   41.2336   34.2838 P   0  0  0  0  0  5  0  0  0  0  0  0
   10.3654   41.4709   35.8744 O   0  0  0  0  0  1  0  0  0  0  0  0
    9.9448   45.1224   33.2621 C   0  0  2  0  0  0  0  0  0  0  0  0
   11.0793   46.0244   33.4673 N   0  0  0  0  0  0  0  0  0  0  0  0
    8.6955   45.7026   33.9588 C   0  0  0  0  0  0  0  0  0  0  0  0
    7.4507   44.9450   33.6100 C   0  0  0  0  0  0  0  0  0  0  0  0
    6.9022   44.0570   34.5425 O   0  0  0  0  0  0  0  0  0  0  0  0
    6.9288   45.0889   32.4708 O   0  0  0  0  0  0  0  0  0  0  0  0
    5.7479   43.2620   34.2822 C   0  0  0  0  0  0  0  0  0  0  0  0
    4.5118   44.1189   34.2670 C   0  0  0  0  0  0  0  0  0  0  0  0
    4.0685   44.7300   35.4511 C   0  0  0  0  0  0  0  0  0  0  0  0
    3.8056   44.3375   33.0722 C   0  0  0  0  0  0  0  0  0  0  0  0
    2.9300   45.5420   35.4410 C   0  0  0  0  0  0  0  0  0  0  0  0
    2.6677   45.1505   33.0663 C   0  0  0  0  0  0  0  0  0  0  0  0
    2.2298   45.7516   34.2497 C   0  0  0  0  0  0  0  0  0  0  0  0
    8.8078   40.1917   34.2082 O   0  0  0  0  0  0  0  0  0  0  0  0
   11.2378   40.7887   33.3690 O   0  0  0  0  0  0  0  0  0  0  0  0
   10.9163   40.6894   31.9959 C   0  0  0  0  0  0  0  0  0  0  0  0
   11.5272   39.3896   31.4370 C   0  0  0  0  0  0  0  0  0  0  0  0
   12.7510   39.0913   32.0834 O   0  0  0  0  0  0  0  0  0  0  0  0
   10.6123   38.1915   31.6451 C   0  0  0  0  0  0  0  0  0  0  0  0
   12.9429   37.6850   32.0294 C   0  0  0  0  0  0  0  0  0  0  0  0
    9.6069   38.0858   30.6603 O   0  0  0  0  0  0  0  0  0  0  0  0
   11.5844   37.0185   31.6879 C   0  0  0  0  0  0  0  0  0  0  0  0
   13.4899   37.2162   33.3249 N   0  0  0  0  0  0  0  0  0  0  0  0
   11.6200   36.3061   30.4692 O   0  0  0  0  0  0  0  0  0  0  0  0
   14.4759   36.3263   33.5738 C   0  0  0  0  0  0  0  0  0  0  0  0
   13.1175   37.6307   34.5698 C   0  0  0  0  0  0  0  0  0  0  0  0
   15.2065   35.6138   32.6746 N   0  0  0  0  0  0  0  0  0  0  0  0
   14.6731   36.2267   34.9191 C   0  0  0  0  0  0  0  0  0  0  0  0
   13.8224   37.0450   35.5792 N   0  0  0  0  0  0  0  0  0  0  0  0
   16.1640   34.7595   33.1551 C   0  0  0  0  0  0  0  0  0  0  0  0
   15.6517   35.3489   35.4136 C   0  0  0  0  0  0  0  0  0  0  0  0
   16.3795   34.6310   34.5046 N   0  0  0  0  0  0  0  0  0  0  0  0
   15.9006   35.1931   36.8094 N   0  0  0  0  0  0  0  0  0  0  0  0
    9.7489   45.0259   32.1698 H   0  0  0  0  0  0  0  0  0  0  0  0
   10.8355   46.9617   33.0715 H   0  0  0  0  0  0  0  0  0  0  0  0
   11.8820   45.6828   32.8886 H   0  0  0  0  0  0  0  0  0  0  0  0
    8.5505   46.7600   33.6478 H   0  0  0  0  0  0  0  0  0  0  0  0
    8.8389   45.6981   35.0617 H   0  0  0  0  0  0  0  0  0  0  0  0
    5.6505   42.5041   35.0880 H   0  0  0  0  0  0  0  0  0  0  0  0
    5.8769   42.7095   33.3255 H   0  0  0  0  0  0  0  0  0  0  0  0
    4.6056   44.5781   36.3793 H   0  0  0  0  0  0  0  0  0  0  0  0
    4.1357   43.8822   32.1467 H   0  0  0  0  0  0  0  0  0  0  0  0
    2.5916   46.0100   36.3564 H   0  0  0  0  0  0  0  0  0  0  0  0
    2.1262   45.3157   32.1439 H   0  0  0  0  0  0  0  0  0  0  0  0
    1.3493   46.3810   34.2432 H   0  0  0  0  0  0  0  0  0  0  0  0
   11.3838   41.5524   31.4752 H   0  0  0  0  0  0  0  0  0  0  0  0
    9.8262   40.7192   31.7585 H   0  0  0  0  0  0  0  0  0  0  0  0
   11.7319   39.5336   30.3516 H   0  0  0  0  0  0  0  0  0  0  0  0
   10.1216   38.2683   32.6412 H   0  0  0  0  0  0  0  0  0  0  0  0
   13.6882   37.4702   31.2318 H   0  0  0  0  0  0  0  0  0  0  0  0
   10.0255   38.1750   29.7656 H   0  0  0  0  0  0  0  0  0  0  0  0
   11.2795   36.3123   32.4915 H   0  0  0  0  0  0  0  0  0  0  0  0
   11.9870   36.9098   29.7714 H   0  0  0  0  0  0  0  0  0  0  0  0
   12.3365   38.3595   34.7452 H   0  0  0  0  0  0  0  0  0  0  0  0
   16.7577   34.1794   32.4623 H   0  0  0  0  0  0  0  0  0  0  0  0
   15.3532   35.7351   37.5143 H   0  0  0  0  0  0  0  0  0  0  0  0
   16.6368   34.5316   37.1418 H   0  0  0  0  0  0  0  0  0  0  0  0
  1  2  2  0
  1  3  1  0
  3  4  1  0
  4  5  1  0
  6  1  1  0
  7  6  1  0
  6  8  1  0
  8  9  1  0
  9 10  1  0
  9 11  2  0
 10 12  1  0
 12 13  1  0
 13 14  2  0
 15 13  1  0
 14 16  1  0
 17 15  2  0
 16 18  2  0
 18 17  1  0
  4 19  2  0
  4 20  1  0
 21 20  1  0
 21 22  1  0
 22 23  1  0
 22 24  1  0
 23 25  1  0
 24 26  1  0
 24 27  1  0
 27 25  1  0
 25 28  1  0
 27 29  1  0
 30 28  1  0
 31 28  1  0
 32 30  2  0
 30 33  1  0
 34 31  2  0
 35 32  1  0
 33 36  2  0
 33 34  1  0
 37 35  2  0
 37 36  1  0
 36 38  1  0
  6 39  1  6
  7 40  1  0
  7 41  1  0
  8 42  1  0
  8 43  1  0
 12 44  1  0
 12 45  1  0
 14 46  1  0
 15 47  1  0
 16 48  1  0
 17 49  1  0
 18 50  1  0
 21 51  1  0
 21 52  1  0
 22 53  1  0
 24 54  1  0
 25 55  1  0
 26 56  1  0
 27 57  1  0
 29 58  1  0
 31 59  1  0
 35 60  1  0
 38 61  1  0
 38 62  1  0
M  CHG  1   5  -1
M  END
>  <EmbedRMS>  (132) 
0.08750990674179894

$$$$

     RDKit          3D

 62 65  0  0  0  0  0  0  0  0999 V2000
   10.2863   43.7709   33.8097 C   0  0  0  0  0  0  0  0  0  0  0  0
   11.4101   43.5818   34.3617 O   0  0  0  0  0  0  0  0  0  0  0  0
    9.3671   42.7306   33.7015 O   0  0  0  0  0  0  0  0  0  0  0  0
    9.8851   41.2327   34.2837 P   0  0  0  0  0  5  0  0  0  0  0  0
   10.3652   41.4675   35.8745 O   0  0  0  0  0  1  0  0  0  0  0  0
    9.9606   45.1124   33.2474 C   0  0  2  0  0  0  0  0  0  0  0  0
   11.0655   46.0480   33.4748 N   0  0  0  0  0  0  0  0  0  0  0  0
    8.6647   45.6565   33.8718 C   0  0  0  0  0  0  0  0  0  0  0  0
    8.2798   46.9665   33.2577 C   0  0  0  0  0  0  0  0  0  0  0  0
    8.7608   48.1539   33.8160 O   0  0  0  0  0  0  0  0  0  0  0  0
    7.5625   46.9865   32.2202 O   0  0  0  0  0  0  0  0  0  0  0  0
    8.4763   49.4337   33.2629 C   0  0  0  0  0  0  0  0  0  0  0  0
    9.1618   50.4878   34.0813 C   0  0  0  0  0  0  0  0  0  0  0  0
   10.4993   50.8268   33.8185 C   0  0  0  0  0  0  0  0  0  0  0  0
    8.4962   51.0938   35.1597 C   0  0  0  0  0  0  0  0  0  0  0  0
   11.1512   51.7811   34.6060 C   0  0  0  0  0  0  0  0  0  0  0  0
    9.1517   52.0478   35.9447 C   0  0  0  0  0  0  0  0  0  0  0  0
   10.4773   52.3930   35.6666 C   0  0  0  0  0  0  0  0  0  0  0  0
    8.8075   40.1901   34.2072 O   0  0  0  0  0  0  0  0  0  0  0  0
   11.2381   40.7897   33.3686 O   0  0  0  0  0  0  0  0  0  0  0  0
   10.9194   40.6894   31.9948 C   0  0  0  0  0  0  0  0  0  0  0  0
   11.5171   39.3800   31.4396 C   0  0  0  0  0  0  0  0  0  0  0  0
   12.7479   39.0861   32.0733 O   0  0  0  0  0  0  0  0  0  0  0  0
   10.6031   38.1891   31.6666 C   0  0  0  0  0  0  0  0  0  0  0  0
   12.9335   37.6796   32.0279 C   0  0  0  0  0  0  0  0  0  0  0  0
    9.6397   38.0776   30.6456 O   0  0  0  0  0  0  0  0  0  0  0  0
   11.5739   37.0154   31.7057 C   0  0  0  0  0  0  0  0  0  0  0  0
   13.4903   37.2178   33.3231 N   0  0  0  0  0  0  0  0  0  0  0  0
   11.6211   36.3376   30.4695 O   0  0  0  0  0  0  0  0  0  0  0  0
   14.4761   36.3273   33.5725 C   0  0  0  0  0  0  0  0  0  0  0  0
   13.1179   37.6316   34.5684 C   0  0  0  0  0  0  0  0  0  0  0  0
   15.2063   35.6139   32.6737 N   0  0  0  0  0  0  0  0  0  0  0  0
   14.6733   36.2277   34.9179 C   0  0  0  0  0  0  0  0  0  0  0  0
   13.8225   37.0459   35.5779 N   0  0  0  0  0  0  0  0  0  0  0  0
   16.1636   34.7594   33.1546 C   0  0  0  0  0  0  0  0  0  0  0  0
   15.6515   35.3494   35.4129 C   0  0  0  0  0  0  0  0  0  0  0  0
   16.3791   34.6311   34.5041 N   0  0  0  0  0  0  0  0  0  0  0  0
   15.9001   35.1935   36.8088 N   0  0  0  0  0  0  0  0  0  0  0  0
    9.8093   44.9957   32.1512 H   0  0  0  0  0  0  0  0  0  0  0  0
   11.2745   46.1196   34.4982 H   0  0  0  0  0  0  0  0  0  0  0  0
   11.9223   45.7018   32.9835 H   0  0  0  0  0  0  0  0  0  0  0  0
    8.7966   45.7911   34.9678 H   0  0  0  0  0  0  0  0  0  0  0  0
    7.8351   44.9318   33.7171 H   0  0  0  0  0  0  0  0  0  0  0  0
    7.3772   49.6036   33.2569 H   0  0  0  0  0  0  0  0  0  0  0  0
    8.8362   49.4763   32.2114 H   0  0  0  0  0  0  0  0  0  0  0  0
   11.0359   50.3522   33.0062 H   0  0  0  0  0  0  0  0  0  0  0  0
    7.4724   50.8279   35.3924 H   0  0  0  0  0  0  0  0  0  0  0  0
   12.1803   52.0433   34.3965 H   0  0  0  0  0  0  0  0  0  0  0  0
    8.6333   52.5164   36.7712 H   0  0  0  0  0  0  0  0  0  0  0  0
   10.9836   53.1303   36.2761 H   0  0  0  0  0  0  0  0  0  0  0  0
   11.4014   41.5436   31.4731 H   0  0  0  0  0  0  0  0  0  0  0  0
    9.8317   40.7398   31.7544 H   0  0  0  0  0  0  0  0  0  0  0  0
   11.6982   39.5042   30.3470 H   0  0  0  0  0  0  0  0  0  0  0  0
   10.1090   38.2631   32.6649 H   0  0  0  0  0  0  0  0  0  0  0  0
   13.6656   37.4540   31.2207 H   0  0  0  0  0  0  0  0  0  0  0  0
    8.8965   38.6899   30.8852 H   0  0  0  0  0  0  0  0  0  0  0  0
   11.2846   36.3060   32.5175 H   0  0  0  0  0  0  0  0  0  0  0  0
   10.8523   35.7094   30.4590 H   0  0  0  0  0  0  0  0  0  0  0  0
   12.3353   38.3588   34.7439 H   0  0  0  0  0  0  0  0  0  0  0  0
   16.7570   34.1788   32.4619 H   0  0  0  0  0  0  0  0  0  0  0  0
   15.3529   35.7359   37.5136 H   0  0  0  0  0  0  0  0  0  0  0  0
   16.6360   34.5317   37.1413 H   0  0  0  0  0  0  0  0  0  0  0  0
  1  2  2  0
  1  3  1  0
  3  4  1  0
  4  5  1  0
  6  1  1  0
  7  6  1  0
  6  8  1  0
  8  9  1  0
  9 10  1  0
  9 11  2  0
 10 12  1  0
 12 13  1  0
 13 14  2  0
 15 13  1  0
 14 16  1  0
 17 15  2  0
 16 18  2  0
 18 17  1  0
  4 19  2  0
  4 20  1  0
 21 20  1  0
 21 22  1  0
 22 23  1  0
 22 24  1  0
 23 25  1  0
 24 26  1  0
 24 27  1  0
 27 25  1  0
 25 28  1  0
 27 29  1  0
 30 28  1  0
 31 28  1  0
 32 30  2  0
 30 33  1  0
 34 31  2  0
 35 32  1  0
 33 36  2  0
 33 34  1  0
 37 35  2  0
 37 36  1  0
 36 38  1  0
  6 39  1  6
  7 40  1  0
  7 41  1  0
  8 42  1  0
  8 43  1  0
 12 44  1  0
 12 45  1  0
 14 46  1  0
 15 47  1  0
 16 48  1  0
 17 49  1  0
 18 50  1  0
 21 51  1  0
 21 52  1  0
 22 53  1  0
 24 54  1  0
 25 55  1  0
 26 56  1  0
 27 57  1  0
 29 58  1  0
 31 59  1  0
 35 60  1  0
 38 61  1  0
 38 62  1  0
M  CHG  1   5  -1
M  END
>  <EmbedRMS>  (133) 
0.08996188119464955

$$$$

     RDKit          3D

 62 65  0  0  0  0  0  0  0  0999 V2000
   10.2806   43.7761   33.8109 C   0  0  0  0  0  0  0  0  0  0  0  0
   11.4064   43.5922   34.3608 O   0  0  0  0  0  0  0  0  0  0  0  0
    9.3682   42.7299   33.7020 O   0  0  0  0  0  0  0  0  0  0  0  0
    9.8867   41.2335   34.2843 P   0  0  0  0  0  5  0  0  0  0  0  0
   10.3662   41.4685   35.8751 O   0  0  0  0  0  1  0  0  0  0  0  0
    9.9570   45.1131   33.2355 C   0  0  2  0  0  0  0  0  0  0  0  0
   11.0718   46.0281   33.4870 N   0  0  0  0  0  0  0  0  0  0  0  0
    8.6427   45.6891   33.8134 C   0  0  0  0  0  0  0  0  0  0  0  0
    7.4301   44.8973   33.4154 C   0  0  0  0  0  0  0  0  0  0  0  0
    7.3708   44.2983   32.1536 O   0  0  0  0  0  0  0  0  0  0  0  0
    6.4573   44.8073   34.2130 O   0  0  0  0  0  0  0  0  0  0  0  0
    6.2787   43.4903   31.7321 C   0  0  0  0  0  0  0  0  0  0  0  0
    6.6066   42.8856   30.3993 C   0  0  0  0  0  0  0  0  0  0  0  0
    6.3757   43.6105   29.2189 C   0  0  0  0  0  0  0  0  0  0  0  0
    7.2232   41.6254   30.3251 C   0  0  0  0  0  0  0  0  0  0  0  0
    6.7328   43.0697   27.9797 C   0  0  0  0  0  0  0  0  0  0  0  0
    7.5811   41.0894   29.0839 C   0  0  0  0  0  0  0  0  0  0  0  0
    7.3339   41.8097   27.9122 C   0  0  0  0  0  0  0  0  0  0  0  0
    8.8088   40.1911   34.2070 O   0  0  0  0  0  0  0  0  0  0  0  0
   11.2391   40.7913   33.3686 O   0  0  0  0  0  0  0  0  0  0  0  0
   10.9186   40.6900   31.9955 C   0  0  0  0  0  0  0  0  0  0  0  0
   11.5173   39.3820   31.4410 C   0  0  0  0  0  0  0  0  0  0  0  0
   12.7496   39.0893   32.0749 O   0  0  0  0  0  0  0  0  0  0  0  0
   10.6040   38.1898   31.6674 C   0  0  0  0  0  0  0  0  0  0  0  0
   12.9403   37.6833   32.0273 C   0  0  0  0  0  0  0  0  0  0  0  0
    9.6364   38.0796   30.6504 O   0  0  0  0  0  0  0  0  0  0  0  0
   11.5806   37.0202   31.6935 C   0  0  0  0  0  0  0  0  0  0  0  0
   13.4903   37.2178   33.3235 N   0  0  0  0  0  0  0  0  0  0  0  0
   11.6114   36.3201   30.4673 O   0  0  0  0  0  0  0  0  0  0  0  0
   14.4759   36.3272   33.5730 C   0  0  0  0  0  0  0  0  0  0  0  0
   13.1176   37.6318   34.5686 C   0  0  0  0  0  0  0  0  0  0  0  0
   15.2064   35.6142   32.6741 N   0  0  0  0  0  0  0  0  0  0  0  0
   14.6729   36.2275   34.9184 C   0  0  0  0  0  0  0  0  0  0  0  0
   13.8221   37.0458   35.5782 N   0  0  0  0  0  0  0  0  0  0  0  0
   16.1637   34.7597   33.1549 C   0  0  0  0  0  0  0  0  0  0  0  0
   15.6513   35.3493   35.4132 C   0  0  0  0  0  0  0  0  0  0  0  0
   16.3791   34.6312   34.5044 N   0  0  0  0  0  0  0  0  0  0  0  0
   15.9001   35.1935   36.8091 N   0  0  0  0  0  0  0  0  0  0  0  0
    9.8540   44.9922   32.1343 H   0  0  0  0  0  0  0  0  0  0  0  0
   10.9089   46.9095   32.9476 H   0  0  0  0  0  0  0  0  0  0  0  0
   11.0928   46.2856   34.5016 H   0  0  0  0  0  0  0  0  0  0  0  0
    8.7107   45.7321   34.9231 H   0  0  0  0  0  0  0  0  0  0  0  0
    8.5034   46.7272   33.4428 H   0  0  0  0  0  0  0  0  0  0  0  0
    6.0930   42.6881   32.4802 H   0  0  0  0  0  0  0  0  0  0  0  0
    5.3600   44.1120   31.6573 H   0  0  0  0  0  0  0  0  0  0  0  0
    5.9235   44.5939   29.2591 H   0  0  0  0  0  0  0  0  0  0  0  0
    7.4266   41.0605   31.2262 H   0  0  0  0  0  0  0  0  0  0  0  0
    6.5490   43.6301   27.0721 H   0  0  0  0  0  0  0  0  0  0  0  0
    8.0532   40.1174   29.0294 H   0  0  0  0  0  0  0  0  0  0  0  0
    7.6125   41.3938   26.9526 H   0  0  0  0  0  0  0  0  0  0  0  0
    9.8314   40.7361   31.7567 H   0  0  0  0  0  0  0  0  0  0  0  0
   11.3969   41.5454   31.4723 H   0  0  0  0  0  0  0  0  0  0  0  0
   11.6976   39.5083   30.3484 H   0  0  0  0  0  0  0  0  0  0  0  0
   10.1171   38.2588   32.6700 H   0  0  0  0  0  0  0  0  0  0  0  0
   13.6802   37.4624   31.2263 H   0  0  0  0  0  0  0  0  0  0  0  0
    8.8722   38.6515   30.9213 H   0  0  0  0  0  0  0  0  0  0  0  0
   11.2838   36.3052   32.4923 H   0  0  0  0  0  0  0  0  0  0  0  0
   11.8844   36.9604   29.7588 H   0  0  0  0  0  0  0  0  0  0  0  0
   12.3360   38.3601   34.7439 H   0  0  0  0  0  0  0  0  0  0  0  0
   16.7572   34.1792   32.4621 H   0  0  0  0  0  0  0  0  0  0  0  0
   16.6361   34.5318   37.1416 H   0  0  0  0  0  0  0  0  0  0  0  0
   15.3527   35.7357   37.5139 H   0  0  0  0  0  0  0  0  0  0  0  0
  1  2  2  0
  1  3  1  0
  3  4  1  0
  4  5  1  0
  6  1  1  0
  7  6  1  0
  6  8  1  0
  8  9  1  0
  9 10  1  0
  9 11  2  0
 10 12  1  0
 12 13  1  0
 13 14  2  0
 15 13  1  0
 14 16  1  0
 17 15  2  0
 16 18  2  0
 18 17  1  0
  4 19  2  0
  4 20  1  0
 21 20  1  0
 21 22  1  0
 22 23  1  0
 22 24  1  0
 23 25  1  0
 24 26  1  0
 24 27  1  0
 27 25  1  0
 25 28  1  0
 27 29  1  0
 30 28  1  0
 31 28  1  0
 32 30  2  0
 30 33  1  0
 34 31  2  0
 35 32  1  0
 33 36  2  0
 33 34  1  0
 37 35  2  0
 37 36  1  0
 36 38  1  0
  6 39  1  6
  7 40  1  0
  7 41  1  0
  8 42  1  0
  8 43  1  0
 12 44  1  0
 12 45  1  0
 14 46  1  0
 15 47  1  0
 16 48  1  0
 17 49  1  0
 18 50  1  0
 21 51  1  0
 21 52  1  0
 22 53  1  0
 24 54  1  0
 25 55  1  0
 26 56  1  0
 27 57  1  0
 29 58  1  0
 31 59  1  0
 35 60  1  0
 38 61  1  0
 38 62  1  0
M  CHG  1   5  -1
M  END
>  <EmbedRMS>  (134) 
0.08827209945234694

$$$$

     RDKit          3D

 62 65  0  0  0  0  0  0  0  0999 V2000
   10.2844   43.7742   33.8068 C   0  0  0  0  0  0  0  0  0  0  0  0
   11.4069   43.5903   34.3636 O   0  0  0  0  0  0  0  0  0  0  0  0
    9.3681   42.7310   33.6989 O   0  0  0  0  0  0  0  0  0  0  0  0
    9.8860   41.2342   34.2839 P   0  0  0  0  0  5  0  0  0  0  0  0
   10.3656   41.4697   35.8747 O   0  0  0  0  0  1  0  0  0  0  0  0
    9.9492   45.1164   33.2548 C   0  0  2  0  0  0  0  0  0  0  0  0
   11.0754   46.0280   33.4733 N   0  0  0  0  0  0  0  0  0  0  0  0
    8.6781   45.6534   33.9423 C   0  0  0  0  0  0  0  0  0  0  0  0
    8.1792   46.9035   33.2861 C   0  0  0  0  0  0  0  0  0  0  0  0
    8.4568   48.1452   33.8689 O   0  0  0  0  0  0  0  0  0  0  0  0
    7.5416   46.8282   32.2004 O   0  0  0  0  0  0  0  0  0  0  0  0
    8.0102   49.3839   33.3219 C   0  0  0  0  0  0  0  0  0  0  0  0
    6.5262   49.5381   33.5139 C   0  0  0  0  0  0  0  0  0  0  0  0
    5.9999   49.6990   34.8059 C   0  0  0  0  0  0  0  0  0  0  0  0
    5.6527   49.4958   32.4142 C   0  0  0  0  0  0  0  0  0  0  0  0
    4.6199   49.8243   34.9937 C   0  0  0  0  0  0  0  0  0  0  0  0
    4.2732   49.6213   32.6063 C   0  0  0  0  0  0  0  0  0  0  0  0
    3.7572   49.7862   33.8947 C   0  0  0  0  0  0  0  0  0  0  0  0
    8.8086   40.1912   34.2076 O   0  0  0  0  0  0  0  0  0  0  0  0
   11.2387   40.7905   33.3693 O   0  0  0  0  0  0  0  0  0  0  0  0
   10.9192   40.6905   31.9959 C   0  0  0  0  0  0  0  0  0  0  0  0
   11.5177   39.3823   31.4410 C   0  0  0  0  0  0  0  0  0  0  0  0
   12.7496   39.0891   32.0754 O   0  0  0  0  0  0  0  0  0  0  0  0
   10.6037   38.1899   31.6659 C   0  0  0  0  0  0  0  0  0  0  0  0
   12.9401   37.6832   32.0276 C   0  0  0  0  0  0  0  0  0  0  0  0
    9.6377   38.0785   30.6474 O   0  0  0  0  0  0  0  0  0  0  0  0
   11.5803   37.0203   31.6937 C   0  0  0  0  0  0  0  0  0  0  0  0
   13.4902   37.2177   33.3237 N   0  0  0  0  0  0  0  0  0  0  0  0
   11.6117   36.3192   30.4680 O   0  0  0  0  0  0  0  0  0  0  0  0
   14.4759   36.3271   33.5731 C   0  0  0  0  0  0  0  0  0  0  0  0
   13.1176   37.6317   34.5688 C   0  0  0  0  0  0  0  0  0  0  0  0
   15.2064   35.6141   32.6742 N   0  0  0  0  0  0  0  0  0  0  0  0
   14.6729   36.2274   34.9184 C   0  0  0  0  0  0  0  0  0  0  0  0
   13.8221   37.0457   35.5783 N   0  0  0  0  0  0  0  0  0  0  0  0
   16.1637   34.7596   33.1549 C   0  0  0  0  0  0  0  0  0  0  0  0
   15.6514   35.3493   35.4133 C   0  0  0  0  0  0  0  0  0  0  0  0
   16.3791   34.6312   34.5044 N   0  0  0  0  0  0  0  0  0  0  0  0
   15.9001   35.1935   36.8091 N   0  0  0  0  0  0  0  0  0  0  0  0
    9.7635   45.0048   32.1622 H   0  0  0  0  0  0  0  0  0  0  0  0
   10.8452   46.9557   33.0499 H   0  0  0  0  0  0  0  0  0  0  0  0
   11.8950   45.6776   32.9246 H   0  0  0  0  0  0  0  0  0  0  0  0
    7.8673   44.8935   33.8948 H   0  0  0  0  0  0  0  0  0  0  0  0
    8.8861   45.8567   35.0158 H   0  0  0  0  0  0  0  0  0  0  0  0
    8.5291   50.2120   33.8491 H   0  0  0  0  0  0  0  0  0  0  0  0
    8.2940   49.4484   32.2484 H   0  0  0  0  0  0  0  0  0  0  0  0
    6.6585   49.7254   35.6654 H   0  0  0  0  0  0  0  0  0  0  0  0
    6.0375   49.3637   31.4106 H   0  0  0  0  0  0  0  0  0  0  0  0
    4.2191   49.9492   35.9913 H   0  0  0  0  0  0  0  0  0  0  0  0
    3.6039   49.5890   31.7563 H   0  0  0  0  0  0  0  0  0  0  0  0
    2.6892   49.8825   34.0416 H   0  0  0  0  0  0  0  0  0  0  0  0
   11.4002   41.5453   31.4742 H   0  0  0  0  0  0  0  0  0  0  0  0
    9.8313   40.7397   31.7557 H   0  0  0  0  0  0  0  0  0  0  0  0
   11.6991   39.5089   30.3487 H   0  0  0  0  0  0  0  0  0  0  0  0
   10.1131   38.2590   32.6664 H   0  0  0  0  0  0  0  0  0  0  0  0
   13.6801   37.4625   31.2265 H   0  0  0  0  0  0  0  0  0  0  0  0
    8.8953   38.6909   30.8891 H   0  0  0  0  0  0  0  0  0  0  0  0
   11.2830   36.3060   32.4929 H   0  0  0  0  0  0  0  0  0  0  0  0
   11.8859   36.9588   29.7593 H   0  0  0  0  0  0  0  0  0  0  0  0
   12.3360   38.3600   34.7441 H   0  0  0  0  0  0  0  0  0  0  0  0
   16.7572   34.1793   32.4621 H   0  0  0  0  0  0  0  0  0  0  0  0
   15.3528   35.7357   37.5140 H   0  0  0  0  0  0  0  0  0  0  0  0
   16.6362   34.5318   37.1416 H   0  0  0  0  0  0  0  0  0  0  0  0
  1  2  2  0
  1  3  1  0
  3  4  1  0
  4  5  1  0
  6  1  1  0
  7  6  1  0
  6  8  1  0
  8  9  1  0
  9 10  1  0
  9 11  2  0
 10 12  1  0
 12 13  1  0
 13 14  2  0
 15 13  1  0
 14 16  1  0
 17 15  2  0
 16 18  2  0
 18 17  1  0
  4 19  2  0
  4 20  1  0
 21 20  1  0
 21 22  1  0
 22 23  1  0
 22 24  1  0
 23 25  1  0
 24 26  1  0
 24 27  1  0
 27 25  1  0
 25 28  1  0
 27 29  1  0
 30 28  1  0
 31 28  1  0
 32 30  2  0
 30 33  1  0
 34 31  2  0
 35 32  1  0
 33 36  2  0
 33 34  1  0
 37 35  2  0
 37 36  1  0
 36 38  1  0
  6 39  1  6
  7 40  1  0
  7 41  1  0
  8 42  1  0
  8 43  1  0
 12 44  1  0
 12 45  1  0
 14 46  1  0
 15 47  1  0
 16 48  1  0
 17 49  1  0
 18 50  1  0
 21 51  1  0
 21 52  1  0
 22 53  1  0
 24 54  1  0
 25 55  1  0
 26 56  1  0
 27 57  1  0
 29 58  1  0
 31 59  1  0
 35 60  1  0
 38 61  1  0
 38 62  1  0
M  CHG  1   5  -1
M  END
>  <EmbedRMS>  (135) 
0.08840409163982867

$$$$

     RDKit          3D

 62 65  0  0  0  0  0  0  0  0999 V2000
   10.2860   43.7721   33.8047 C   0  0  0  0  0  0  0  0  0  0  0  0
   11.4085   43.5885   34.3610 O   0  0  0  0  0  0  0  0  0  0  0  0
    9.3673   42.7311   33.6995 O   0  0  0  0  0  0  0  0  0  0  0  0
    9.8850   41.2344   34.2845 P   0  0  0  0  0  5  0  0  0  0  0  0
   10.3655   41.4703   35.8749 O   0  0  0  0  0  1  0  0  0  0  0  0
    9.9531   45.1148   33.2532 C   0  0  2  0  0  0  0  0  0  0  0  0
   11.0712   46.0334   33.4767 N   0  0  0  0  0  0  0  0  0  0  0  0
    8.6601   45.6660   33.8878 C   0  0  0  0  0  0  0  0  0  0  0  0
    8.7931   45.8706   35.3678 C   0  0  0  0  0  0  0  0  0  0  0  0
    9.3405   47.0644   35.8507 O   0  0  0  0  0  0  0  0  0  0  0  0
    8.4473   44.9522   36.1603 O   0  0  0  0  0  0  0  0  0  0  0  0
    9.5032   47.3452   37.2390 C   0  0  0  0  0  0  0  0  0  0  0  0
    8.1681   47.6010   37.8833 C   0  0  0  0  0  0  0  0  0  0  0  0
    7.6316   46.6888   38.8076 C   0  0  0  0  0  0  0  0  0  0  0  0
    7.4331   48.7476   37.5408 C   0  0  0  0  0  0  0  0  0  0  0  0
    6.3808   46.9270   39.3859 C   0  0  0  0  0  0  0  0  0  0  0  0
    6.1828   48.9821   38.1216 C   0  0  0  0  0  0  0  0  0  0  0  0
    5.6573   48.0729   39.0439 C   0  0  0  0  0  0  0  0  0  0  0  0
    8.8076   40.1914   34.2088 O   0  0  0  0  0  0  0  0  0  0  0  0
   11.2369   40.7903   33.3690 O   0  0  0  0  0  0  0  0  0  0  0  0
   10.9155   40.6897   31.9960 C   0  0  0  0  0  0  0  0  0  0  0  0
   11.5270   39.3898   31.4374 C   0  0  0  0  0  0  0  0  0  0  0  0
   12.7508   39.0916   32.0839 O   0  0  0  0  0  0  0  0  0  0  0  0
   10.6122   38.1916   31.6452 C   0  0  0  0  0  0  0  0  0  0  0  0
   12.9429   37.6852   32.0295 C   0  0  0  0  0  0  0  0  0  0  0  0
    9.6070   38.0858   30.6603 O   0  0  0  0  0  0  0  0  0  0  0  0
   11.5845   37.0186   31.6879 C   0  0  0  0  0  0  0  0  0  0  0  0
   13.4899   37.2163   33.3250 N   0  0  0  0  0  0  0  0  0  0  0  0
   11.6201   36.3062   30.4693 O   0  0  0  0  0  0  0  0  0  0  0  0
   14.4759   36.3263   33.5738 C   0  0  0  0  0  0  0  0  0  0  0  0
   13.1176   37.6307   34.5699 C   0  0  0  0  0  0  0  0  0  0  0  0
   15.2065   35.6139   32.6746 N   0  0  0  0  0  0  0  0  0  0  0  0
   14.6731   36.2267   34.9191 C   0  0  0  0  0  0  0  0  0  0  0  0
   13.8224   37.0450   35.5792 N   0  0  0  0  0  0  0  0  0  0  0  0
   16.1640   34.7596   33.1551 C   0  0  0  0  0  0  0  0  0  0  0  0
   15.6517   35.3489   35.4136 C   0  0  0  0  0  0  0  0  0  0  0  0
   16.3795   34.6310   34.5046 N   0  0  0  0  0  0  0  0  0  0  0  0
   15.9006   35.1931   36.8094 N   0  0  0  0  0  0  0  0  0  0  0  0
    9.7839   45.0049   32.1583 H   0  0  0  0  0  0  0  0  0  0  0  0
   11.8828   45.7126   32.8988 H   0  0  0  0  0  0  0  0  0  0  0  0
   10.8100   46.9716   33.0947 H   0  0  0  0  0  0  0  0  0  0  0  0
    8.4021   46.6374   33.4135 H   0  0  0  0  0  0  0  0  0  0  0  0
    7.8145   44.9733   33.6822 H   0  0  0  0  0  0  0  0  0  0  0  0
   10.1340   48.2529   37.3458 H   0  0  0  0  0  0  0  0  0  0  0  0
   10.0440   46.5087   37.7338 H   0  0  0  0  0  0  0  0  0  0  0  0
    8.1783   45.7942   39.0785 H   0  0  0  0  0  0  0  0  0  0  0  0
    7.8282   49.4566   36.8238 H   0  0  0  0  0  0  0  0  0  0  0  0
    5.9715   46.2222   40.0981 H   0  0  0  0  0  0  0  0  0  0  0  0
    5.6205   49.8678   37.8552 H   0  0  0  0  0  0  0  0  0  0  0  0
    4.6891   48.2553   39.4920 H   0  0  0  0  0  0  0  0  0  0  0  0
    9.8254   40.7190   31.7587 H   0  0  0  0  0  0  0  0  0  0  0  0
   11.3825   41.5526   31.4747 H   0  0  0  0  0  0  0  0  0  0  0  0
   11.7318   39.5338   30.3520 H   0  0  0  0  0  0  0  0  0  0  0  0
   10.1214   38.2682   32.6413 H   0  0  0  0  0  0  0  0  0  0  0  0
   13.6882   37.4708   31.2319 H   0  0  0  0  0  0  0  0  0  0  0  0
   10.0257   38.1751   29.7656 H   0  0  0  0  0  0  0  0  0  0  0  0
   11.2795   36.3123   32.4915 H   0  0  0  0  0  0  0  0  0  0  0  0
   11.9872   36.9099   29.7715 H   0  0  0  0  0  0  0  0  0  0  0  0
   12.3365   38.3595   34.7453 H   0  0  0  0  0  0  0  0  0  0  0  0
   16.7577   34.1794   32.4622 H   0  0  0  0  0  0  0  0  0  0  0  0
   16.6368   34.5316   37.1418 H   0  0  0  0  0  0  0  0  0  0  0  0
   15.3532   35.7351   37.5143 H   0  0  0  0  0  0  0  0  0  0  0  0
  1  2  2  0
  1  3  1  0
  3  4  1  0
  4  5  1  0
  6  1  1  0
  7  6  1  0
  6  8  1  0
  8  9  1  0
  9 10  1  0
  9 11  2  0
 10 12  1  0
 12 13  1  0
 13 14  2  0
 15 13  1  0
 14 16  1  0
 17 15  2  0
 16 18  2  0
 18 17  1  0
  4 19  2  0
  4 20  1  0
 21 20  1  0
 21 22  1  0
 22 23  1  0
 22 24  1  0
 23 25  1  0
 24 26  1  0
 24 27  1  0
 27 25  1  0
 25 28  1  0
 27 29  1  0
 30 28  1  0
 31 28  1  0
 32 30  2  0
 30 33  1  0
 34 31  2  0
 35 32  1  0
 33 36  2  0
 33 34  1  0
 37 35  2  0
 37 36  1  0
 36 38  1  0
  6 39  1  6
  7 40  1  0
  7 41  1  0
  8 42  1  0
  8 43  1  0
 12 44  1  0
 12 45  1  0
 14 46  1  0
 15 47  1  0
 16 48  1  0
 17 49  1  0
 18 50  1  0
 21 51  1  0
 21 52  1  0
 22 53  1  0
 24 54  1  0
 25 55  1  0
 26 56  1  0
 27 57  1  0
 29 58  1  0
 31 59  1  0
 35 60  1  0
 38 61  1  0
 38 62  1  0
M  CHG  1   5  -1
M  END
>  <EmbedRMS>  (136) 
0.08700900404362631

$$$$

     RDKit          3D

 62 65  0  0  0  0  0  0  0  0999 V2000
   10.2875   43.7689   33.8087 C   0  0  0  0  0  0  0  0  0  0  0  0
   11.4116   43.5793   34.3596 O   0  0  0  0  0  0  0  0  0  0  0  0
    9.3666   42.7304   33.7019 O   0  0  0  0  0  0  0  0  0  0  0  0
    9.8844   41.2325   34.2835 P   0  0  0  0  0  5  0  0  0  0  0  0
   10.3657   41.4676   35.8740 O   0  0  0  0  0  1  0  0  0  0  0  0
    9.9638   45.1116   33.2468 C   0  0  2  0  0  0  0  0  0  0  0  0
   11.0621   46.0542   33.4764 N   0  0  0  0  0  0  0  0  0  0  0  0
    8.6420   45.6681   33.8104 C   0  0  0  0  0  0  0  0  0  0  0  0
    8.6663   45.8232   35.3023 C   0  0  0  0  0  0  0  0  0  0  0  0
    9.1531   47.0072   35.8622 O   0  0  0  0  0  0  0  0  0  0  0  0
    8.2815   44.8737   36.0384 O   0  0  0  0  0  0  0  0  0  0  0  0
    9.2643   47.2036   37.2670 C   0  0  0  0  0  0  0  0  0  0  0  0
    9.8657   48.5526   37.5297 C   0  0  0  0  0  0  0  0  0  0  0  0
    9.0410   49.6709   37.7360 C   0  0  0  0  0  0  0  0  0  0  0  0
   11.2600   48.7200   37.5026 C   0  0  0  0  0  0  0  0  0  0  0  0
    9.6063   50.9334   37.9420 C   0  0  0  0  0  0  0  0  0  0  0  0
   11.8213   49.9842   37.7088 C   0  0  0  0  0  0  0  0  0  0  0  0
   10.9952   51.0896   37.9309 C   0  0  0  0  0  0  0  0  0  0  0  0
    8.8065   40.1902   34.2080 O   0  0  0  0  0  0  0  0  0  0  0  0
   11.2363   40.7897   33.3664 O   0  0  0  0  0  0  0  0  0  0  0  0
   10.9140   40.6849   31.9934 C   0  0  0  0  0  0  0  0  0  0  0  0
   11.5165   39.3773   31.4394 C   0  0  0  0  0  0  0  0  0  0  0  0
   12.7471   39.0855   32.0739 O   0  0  0  0  0  0  0  0  0  0  0  0
   10.6047   38.1867   31.6670 C   0  0  0  0  0  0  0  0  0  0  0  0
   12.9345   37.6791   32.0282 C   0  0  0  0  0  0  0  0  0  0  0  0
    9.6378   38.0917   30.6488 O   0  0  0  0  0  0  0  0  0  0  0  0
   11.5761   37.0129   31.7056 C   0  0  0  0  0  0  0  0  0  0  0  0
   13.4909   37.2177   33.3233 N   0  0  0  0  0  0  0  0  0  0  0  0
   11.6234   36.3371   30.4683 O   0  0  0  0  0  0  0  0  0  0  0  0
   14.4765   36.3272   33.5727 C   0  0  0  0  0  0  0  0  0  0  0  0
   13.1182   37.6316   34.5685 C   0  0  0  0  0  0  0  0  0  0  0  0
   15.2066   35.6137   32.6739 N   0  0  0  0  0  0  0  0  0  0  0  0
   14.6736   36.2276   34.9182 C   0  0  0  0  0  0  0  0  0  0  0  0
   13.8227   37.0458   35.5781 N   0  0  0  0  0  0  0  0  0  0  0  0
   16.1638   34.7593   33.1548 C   0  0  0  0  0  0  0  0  0  0  0  0
   15.6517   35.3492   35.4131 C   0  0  0  0  0  0  0  0  0  0  0  0
   16.3792   34.6309   34.5043 N   0  0  0  0  0  0  0  0  0  0  0  0
   15.9002   35.1934   36.8090 N   0  0  0  0  0  0  0  0  0  0  0  0
    9.8334   44.9915   32.1488 H   0  0  0  0  0  0  0  0  0  0  0  0
   11.3054   46.0958   34.4934 H   0  0  0  0  0  0  0  0  0  0  0  0
   11.9089   45.7283   32.9548 H   0  0  0  0  0  0  0  0  0  0  0  0
    8.4388   46.6589   33.3495 H   0  0  0  0  0  0  0  0  0  0  0  0
    7.8023   44.9978   33.5233 H   0  0  0  0  0  0  0  0  0  0  0  0
    8.2590   47.1287   37.7367 H   0  0  0  0  0  0  0  0  0  0  0  0
    9.9091   46.4110   37.7066 H   0  0  0  0  0  0  0  0  0  0  0  0
    7.9631   49.5657   37.7369 H   0  0  0  0  0  0  0  0  0  0  0  0
   11.9104   47.8731   37.3209 H   0  0  0  0  0  0  0  0  0  0  0  0
    8.9673   51.7915   38.1062 H   0  0  0  0  0  0  0  0  0  0  0  0
   12.8964   50.1076   37.6924 H   0  0  0  0  0  0  0  0  0  0  0  0
   11.4310   52.0677   38.0889 H   0  0  0  0  0  0  0  0  0  0  0  0
    9.8241   40.7213   31.7565 H   0  0  0  0  0  0  0  0  0  0  0  0
   11.3873   41.5416   31.4677 H   0  0  0  0  0  0  0  0  0  0  0  0
   11.6985   39.5014   30.3468 H   0  0  0  0  0  0  0  0  0  0  0  0
   10.1095   38.2769   32.6629 H   0  0  0  0  0  0  0  0  0  0  0  0
   13.6672   37.4546   31.2213 H   0  0  0  0  0  0  0  0  0  0  0  0
    8.9779   37.4156   30.9532 H   0  0  0  0  0  0  0  0  0  0  0  0
   11.2861   36.3041   32.5176 H   0  0  0  0  0  0  0  0  0  0  0  0
   10.8691   35.6918   30.4657 H   0  0  0  0  0  0  0  0  0  0  0  0
   12.3356   38.3587   34.7440 H   0  0  0  0  0  0  0  0  0  0  0  0
   16.7572   34.1786   32.4621 H   0  0  0  0  0  0  0  0  0  0  0  0
   16.6361   34.5315   37.1415 H   0  0  0  0  0  0  0  0  0  0  0  0
   15.3530   35.7358   37.5138 H   0  0  0  0  0  0  0  0  0  0  0  0
  1  2  2  0
  1  3  1  0
  3  4  1  0
  4  5  1  0
  6  1  1  0
  7  6  1  0
  6  8  1  0
  8  9  1  0
  9 10  1  0
  9 11  2  0
 10 12  1  0
 12 13  1  0
 13 14  2  0
 15 13  1  0
 14 16  1  0
 17 15  2  0
 16 18  2  0
 18 17  1  0
  4 19  2  0
  4 20  1  0
 21 20  1  0
 21 22  1  0
 22 23  1  0
 22 24  1  0
 23 25  1  0
 24 26  1  0
 24 27  1  0
 27 25  1  0
 25 28  1  0
 27 29  1  0
 30 28  1  0
 31 28  1  0
 32 30  2  0
 30 33  1  0
 34 31  2  0
 35 32  1  0
 33 36  2  0
 33 34  1  0
 37 35  2  0
 37 36  1  0
 36 38  1  0
  6 39  1  6
  7 40  1  0
  7 41  1  0
  8 42  1  0
  8 43  1  0
 12 44  1  0
 12 45  1  0
 14 46  1  0
 15 47  1  0
 16 48  1  0
 17 49  1  0
 18 50  1  0
 21 51  1  0
 21 52  1  0
 22 53  1  0
 24 54  1  0
 25 55  1  0
 26 56  1  0
 27 57  1  0
 29 58  1  0
 31 59  1  0
 35 60  1  0
 38 61  1  0
 38 62  1  0
M  CHG  1   5  -1
M  END
>  <EmbedRMS>  (137) 
0.0896549364207397

$$$$

     RDKit          3D

 62 65  0  0  0  0  0  0  0  0999 V2000
   10.2865   43.7710   33.8017 C   0  0  0  0  0  0  0  0  0  0  0  0
   11.4090   43.5869   34.3579 O   0  0  0  0  0  0  0  0  0  0  0  0
    9.3669   42.7309   33.6986 O   0  0  0  0  0  0  0  0  0  0  0  0
    9.8849   41.2346   34.2847 P   0  0  0  0  0  5  0  0  0  0  0  0
   10.3654   41.4710   35.8749 O   0  0  0  0  0  1  0  0  0  0  0  0
    9.9516   45.1163   33.2555 C   0  0  2  0  0  0  0  0  0  0  0  0
   11.0720   46.0323   33.4788 N   0  0  0  0  0  0  0  0  0  0  0  0
    8.6615   45.6676   33.8995 C   0  0  0  0  0  0  0  0  0  0  0  0
    8.7697   45.7520   35.3930 C   0  0  0  0  0  0  0  0  0  0  0  0
    9.5770   46.7376   35.9703 O   0  0  0  0  0  0  0  0  0  0  0  0
    8.1781   44.9013   36.1123 O   0  0  0  0  0  0  0  0  0  0  0  0
    9.9950   46.6982   37.3322 C   0  0  0  0  0  0  0  0  0  0  0  0
   10.9831   45.5812   37.5321 C   0  0  0  0  0  0  0  0  0  0  0  0
   12.2597   45.6645   36.9529 C   0  0  0  0  0  0  0  0  0  0  0  0
   10.6214   44.4221   38.2388 C   0  0  0  0  0  0  0  0  0  0  0  0
   13.1651   44.6076   37.0884 C   0  0  0  0  0  0  0  0  0  0  0  0
   11.5303   43.3678   38.3730 C   0  0  0  0  0  0  0  0  0  0  0  0
   12.8006   43.4599   37.7978 C   0  0  0  0  0  0  0  0  0  0  0  0
    8.8077   40.1914   34.2093 O   0  0  0  0  0  0  0  0  0  0  0  0
   11.2368   40.7903   33.3695 O   0  0  0  0  0  0  0  0  0  0  0  0
   10.9156   40.6898   31.9963 C   0  0  0  0  0  0  0  0  0  0  0  0
   11.5270   39.3899   31.4376 C   0  0  0  0  0  0  0  0  0  0  0  0
   12.7508   39.0917   32.0839 O   0  0  0  0  0  0  0  0  0  0  0  0
   10.6122   38.1916   31.6453 C   0  0  0  0  0  0  0  0  0  0  0  0
   12.9429   37.6853   32.0296 C   0  0  0  0  0  0  0  0  0  0  0  0
    9.6070   38.0859   30.6603 O   0  0  0  0  0  0  0  0  0  0  0  0
   11.5845   37.0187   31.6880 C   0  0  0  0  0  0  0  0  0  0  0  0
   13.4899   37.2164   33.3250 N   0  0  0  0  0  0  0  0  0  0  0  0
   11.6201   36.3063   30.4693 O   0  0  0  0  0  0  0  0  0  0  0  0
   14.4758   36.3264   33.5739 C   0  0  0  0  0  0  0  0  0  0  0  0
   13.1176   37.6309   34.5700 C   0  0  0  0  0  0  0  0  0  0  0  0
   15.2065   35.6139   32.6746 N   0  0  0  0  0  0  0  0  0  0  0  0
   14.6731   36.2268   34.9191 C   0  0  0  0  0  0  0  0  0  0  0  0
   13.8225   37.0451   35.5793 N   0  0  0  0  0  0  0  0  0  0  0  0
   16.1640   34.7596   33.1551 C   0  0  0  0  0  0  0  0  0  0  0  0
   15.6517   35.3489   35.4136 C   0  0  0  0  0  0  0  0  0  0  0  0
   16.3795   34.6310   34.5046 N   0  0  0  0  0  0  0  0  0  0  0  0
   15.9006   35.1931   36.8094 N   0  0  0  0  0  0  0  0  0  0  0  0
    9.7784   45.0127   32.1608 H   0  0  0  0  0  0  0  0  0  0  0  0
   11.8841   45.7085   32.9032 H   0  0  0  0  0  0  0  0  0  0  0  0
   10.8146   46.9709   33.0954 H   0  0  0  0  0  0  0  0  0  0  0  0
    8.4453   46.6802   33.4965 H   0  0  0  0  0  0  0  0  0  0  0  0
    7.8020   45.0179   33.6228 H   0  0  0  0  0  0  0  0  0  0  0  0
    9.1121   46.5896   37.9996 H   0  0  0  0  0  0  0  0  0  0  0  0
   10.4831   47.6636   37.5831 H   0  0  0  0  0  0  0  0  0  0  0  0
   12.5481   46.5430   36.3888 H   0  0  0  0  0  0  0  0  0  0  0  0
    9.6361   44.3308   38.6785 H   0  0  0  0  0  0  0  0  0  0  0  0
   14.1468   44.6755   36.6379 H   0  0  0  0  0  0  0  0  0  0  0  0
   11.2470   42.4759   38.9169 H   0  0  0  0  0  0  0  0  0  0  0  0
   13.5008   42.6408   37.8984 H   0  0  0  0  0  0  0  0  0  0  0  0
   11.3827   41.5528   31.4752 H   0  0  0  0  0  0  0  0  0  0  0  0
    9.8255   40.7192   31.7590 H   0  0  0  0  0  0  0  0  0  0  0  0
   11.7318   39.5341   30.3522 H   0  0  0  0  0  0  0  0  0  0  0  0
   10.1214   38.2682   32.6413 H   0  0  0  0  0  0  0  0  0  0  0  0
   13.6882   37.4709   31.2320 H   0  0  0  0  0  0  0  0  0  0  0  0
   10.0257   38.1753   29.7657 H   0  0  0  0  0  0  0  0  0  0  0  0
   11.2796   36.3124   32.4916 H   0  0  0  0  0  0  0  0  0  0  0  0
   11.9872   36.9100   29.7715 H   0  0  0  0  0  0  0  0  0  0  0  0
   12.3367   38.3599   34.7454 H   0  0  0  0  0  0  0  0  0  0  0  0
   16.7576   34.1795   32.4622 H   0  0  0  0  0  0  0  0  0  0  0  0
   15.3533   35.7352   37.5144 H   0  0  0  0  0  0  0  0  0  0  0  0
   16.6368   34.5316   37.1418 H   0  0  0  0  0  0  0  0  0  0  0  0
  1  2  2  0
  1  3  1  0
  3  4  1  0
  4  5  1  0
  6  1  1  0
  7  6  1  0
  6  8  1  0
  8  9  1  0
  9 10  1  0
  9 11  2  0
 10 12  1  0
 12 13  1  0
 13 14  2  0
 15 13  1  0
 14 16  1  0
 17 15  2  0
 16 18  2  0
 18 17  1  0
  4 19  2  0
  4 20  1  0
 21 20  1  0
 21 22  1  0
 22 23  1  0
 22 24  1  0
 23 25  1  0
 24 26  1  0
 24 27  1  0
 27 25  1  0
 25 28  1  0
 27 29  1  0
 30 28  1  0
 31 28  1  0
 32 30  2  0
 30 33  1  0
 34 31  2  0
 35 32  1  0
 33 36  2  0
 33 34  1  0
 37 35  2  0
 37 36  1  0
 36 38  1  0
  6 39  1  6
  7 40  1  0
  7 41  1  0
  8 42  1  0
  8 43  1  0
 12 44  1  0
 12 45  1  0
 14 46  1  0
 15 47  1  0
 16 48  1  0
 17 49  1  0
 18 50  1  0
 21 51  1  0
 21 52  1  0
 22 53  1  0
 24 54  1  0
 25 55  1  0
 26 56  1  0
 27 57  1  0
 29 58  1  0
 31 59  1  0
 35 60  1  0
 38 61  1  0
 38 62  1  0
M  CHG  1   5  -1
M  END
>  <EmbedRMS>  (138) 
0.08689719900953617

$$$$

     RDKit          3D

 62 65  0  0  0  0  0  0  0  0999 V2000
   10.2861   43.7719   33.8036 C   0  0  0  0  0  0  0  0  0  0  0  0
   11.4106   43.5876   34.3556 O   0  0  0  0  0  0  0  0  0  0  0  0
    9.3667   42.7312   33.7010 O   0  0  0  0  0  0  0  0  0  0  0  0
    9.8849   41.2343   34.2854 P   0  0  0  0  0  5  0  0  0  0  0  0
   10.3681   41.4691   35.8743 O   0  0  0  0  0  1  0  0  0  0  0  0
    9.9609   45.1097   33.2376 C   0  0  2  0  0  0  0  0  0  0  0  0
   11.0639   46.0385   33.4930 N   0  0  0  0  0  0  0  0  0  0  0  0
    8.6139   45.6554   33.7646 C   0  0  0  0  0  0  0  0  0  0  0  0
    8.5714   45.7746   35.2601 C   0  0  0  0  0  0  0  0  0  0  0  0
    8.4739   44.6167   36.0357 O   0  0  0  0  0  0  0  0  0  0  0  0
    8.6407   46.9106   35.8039 O   0  0  0  0  0  0  0  0  0  0  0  0
    8.4084   44.6370   37.4567 C   0  0  0  0  0  0  0  0  0  0  0  0
    8.4112   43.2256   37.9685 C   0  0  0  0  0  0  0  0  0  0  0  0
    7.3603   42.3569   37.6311 C   0  0  0  0  0  0  0  0  0  0  0  0
    9.4719   42.7497   38.7581 C   0  0  0  0  0  0  0  0  0  0  0  0
    7.3715   41.0314   38.0761 C   0  0  0  0  0  0  0  0  0  0  0  0
    9.4776   41.4239   39.2033 C   0  0  0  0  0  0  0  0  0  0  0  0
    8.4291   40.5652   38.8616 C   0  0  0  0  0  0  0  0  0  0  0  0
    8.8074   40.1915   34.2105 O   0  0  0  0  0  0  0  0  0  0  0  0
   11.2372   40.7903   33.3700 O   0  0  0  0  0  0  0  0  0  0  0  0
   10.9180   40.6904   31.9965 C   0  0  0  0  0  0  0  0  0  0  0  0
   11.5171   39.3825   31.4414 C   0  0  0  0  0  0  0  0  0  0  0  0
   12.7492   39.0894   32.0757 O   0  0  0  0  0  0  0  0  0  0  0  0
   10.6034   38.1899   31.6660 C   0  0  0  0  0  0  0  0  0  0  0  0
   12.9400   37.6835   32.0277 C   0  0  0  0  0  0  0  0  0  0  0  0
    9.6375   38.0784   30.6475 O   0  0  0  0  0  0  0  0  0  0  0  0
   11.5803   37.0204   31.6937 C   0  0  0  0  0  0  0  0  0  0  0  0
   13.4901   37.2178   33.3238 N   0  0  0  0  0  0  0  0  0  0  0  0
   11.6118   36.3194   30.4680 O   0  0  0  0  0  0  0  0  0  0  0  0
   14.4758   36.3272   33.5731 C   0  0  0  0  0  0  0  0  0  0  0  0
   13.1175   37.6318   34.5689 C   0  0  0  0  0  0  0  0  0  0  0  0
   15.2063   35.6142   32.6742 N   0  0  0  0  0  0  0  0  0  0  0  0
   14.6729   36.2275   34.9185 C   0  0  0  0  0  0  0  0  0  0  0  0
   13.8221   37.0458   35.5784 N   0  0  0  0  0  0  0  0  0  0  0  0
   16.1636   34.7597   33.1549 C   0  0  0  0  0  0  0  0  0  0  0  0
   15.6513   35.3493   35.4133 C   0  0  0  0  0  0  0  0  0  0  0  0
   16.3790   34.6312   34.5044 N   0  0  0  0  0  0  0  0  0  0  0  0
   15.9001   35.1935   36.8091 N   0  0  0  0  0  0  0  0  0  0  0  0
    9.8664   44.9820   32.1369 H   0  0  0  0  0  0  0  0  0  0  0  0
   10.8643   46.9382   32.9981 H   0  0  0  0  0  0  0  0  0  0  0  0
   11.1215   46.2529   34.5154 H   0  0  0  0  0  0  0  0  0  0  0  0
    8.4141   46.6478   33.3045 H   0  0  0  0  0  0  0  0  0  0  0  0
    7.7923   44.9799   33.4419 H   0  0  0  0  0  0  0  0  0  0  0  0
    7.4737   45.1443   37.7796 H   0  0  0  0  0  0  0  0  0  0  0  0
    9.2741   45.2061   37.8612 H   0  0  0  0  0  0  0  0  0  0  0  0
    6.5384   42.7049   37.0176 H   0  0  0  0  0  0  0  0  0  0  0  0
   10.2962   43.3997   39.0237 H   0  0  0  0  0  0  0  0  0  0  0  0
    6.5613   40.3649   37.8099 H   0  0  0  0  0  0  0  0  0  0  0  0
   10.2974   41.0608   39.8095 H   0  0  0  0  0  0  0  0  0  0  0  0
    8.4370   39.5386   39.2043 H   0  0  0  0  0  0  0  0  0  0  0  0
   11.3985   41.5456   31.4751 H   0  0  0  0  0  0  0  0  0  0  0  0
    9.8300   40.7391   31.7567 H   0  0  0  0  0  0  0  0  0  0  0  0
   11.6985   39.5094   30.3491 H   0  0  0  0  0  0  0  0  0  0  0  0
   10.1128   38.2587   32.6665 H   0  0  0  0  0  0  0  0  0  0  0  0
   13.6799   37.4630   31.2266 H   0  0  0  0  0  0  0  0  0  0  0  0
    8.8949   38.6903   30.8894 H   0  0  0  0  0  0  0  0  0  0  0  0
   11.2831   36.3060   32.4929 H   0  0  0  0  0  0  0  0  0  0  0  0
   11.8859   36.9590   29.7593 H   0  0  0  0  0  0  0  0  0  0  0  0
   12.3359   38.3601   34.7443 H   0  0  0  0  0  0  0  0  0  0  0  0
   16.7572   34.1793   32.4621 H   0  0  0  0  0  0  0  0  0  0  0  0
   15.3528   35.7357   37.5140 H   0  0  0  0  0  0  0  0  0  0  0  0
   16.6361   34.5318   37.1416 H   0  0  0  0  0  0  0  0  0  0  0  0
  1  2  2  0
  1  3  1  0
  3  4  1  0
  4  5  1  0
  6  1  1  0
  7  6  1  0
  6  8  1  0
  8  9  1  0
  9 10  1  0
  9 11  2  0
 10 12  1  0
 12 13  1  0
 13 14  2  0
 15 13  1  0
 14 16  1  0
 17 15  2  0
 16 18  2  0
 18 17  1  0
  4 19  2  0
  4 20  1  0
 21 20  1  0
 21 22  1  0
 22 23  1  0
 22 24  1  0
 23 25  1  0
 24 26  1  0
 24 27  1  0
 27 25  1  0
 25 28  1  0
 27 29  1  0
 30 28  1  0
 31 28  1  0
 32 30  2  0
 30 33  1  0
 34 31  2  0
 35 32  1  0
 33 36  2  0
 33 34  1  0
 37 35  2  0
 37 36  1  0
 36 38  1  0
  6 39  1  6
  7 40  1  0
  7 41  1  0
  8 42  1  0
  8 43  1  0
 12 44  1  0
 12 45  1  0
 14 46  1  0
 15 47  1  0
 16 48  1  0
 17 49  1  0
 18 50  1  0
 21 51  1  0
 21 52  1  0
 22 53  1  0
 24 54  1  0
 25 55  1  0
 26 56  1  0
 27 57  1  0
 29 58  1  0
 31 59  1  0
 35 60  1  0
 38 61  1  0
 38 62  1  0
M  CHG  1   5  -1
M  END
>  <EmbedRMS>  (139) 
0.088167526821078

$$$$

     RDKit          3D

 62 65  0  0  0  0  0  0  0  0999 V2000
   10.2865   43.7707   33.8022 C   0  0  0  0  0  0  0  0  0  0  0  0
   11.4092   43.5867   34.3585 O   0  0  0  0  0  0  0  0  0  0  0  0
    9.3669   42.7307   33.6988 O   0  0  0  0  0  0  0  0  0  0  0  0
    9.8851   41.2343   34.2842 P   0  0  0  0  0  5  0  0  0  0  0  0
   10.3658   41.4709   35.8746 O   0  0  0  0  0  1  0  0  0  0  0  0
    9.9534   45.1152   33.2538 C   0  0  2  0  0  0  0  0  0  0  0  0
   11.0706   46.0344   33.4792 N   0  0  0  0  0  0  0  0  0  0  0  0
    8.6538   45.6667   33.8831 C   0  0  0  0  0  0  0  0  0  0  0  0
    8.6784   45.7222   35.3868 C   0  0  0  0  0  0  0  0  0  0  0  0
    9.8941   45.8236   36.0694 O   0  0  0  0  0  0  0  0  0  0  0  0
    7.5894   45.7068   36.0226 O   0  0  0  0  0  0  0  0  0  0  0  0
    9.9886   45.8048   37.4882 C   0  0  0  0  0  0  0  0  0  0  0  0
   11.4365   45.7884   37.8794 C   0  0  0  0  0  0  0  0  0  0  0  0
   12.0951   46.9786   38.2295 C   0  0  0  0  0  0  0  0  0  0  0  0
   12.1636   44.5877   37.8267 C   0  0  0  0  0  0  0  0  0  0  0  0
   13.4563   46.9608   38.5501 C   0  0  0  0  0  0  0  0  0  0  0  0
   13.5246   44.5744   38.1470 C   0  0  0  0  0  0  0  0  0  0  0  0
   14.1700   45.7595   38.5110 C   0  0  0  0  0  0  0  0  0  0  0  0
    8.8077   40.1913   34.2091 O   0  0  0  0  0  0  0  0  0  0  0  0
   11.2368   40.7897   33.3684 O   0  0  0  0  0  0  0  0  0  0  0  0
   10.9153   40.6882   31.9952 C   0  0  0  0  0  0  0  0  0  0  0  0
   11.5260   39.3872   31.4366 C   0  0  0  0  0  0  0  0  0  0  0  0
   12.7491   39.0893   32.0820 O   0  0  0  0  0  0  0  0  0  0  0  0
   10.6123   38.1893   31.6462 C   0  0  0  0  0  0  0  0  0  0  0  0
   12.9373   37.6827   32.0301 C   0  0  0  0  0  0  0  0  0  0  0  0
    9.6150   38.0839   30.6538 O   0  0  0  0  0  0  0  0  0  0  0  0
   11.5793   37.0137   31.7014 C   0  0  0  0  0  0  0  0  0  0  0  0
   13.4906   37.2170   33.3243 N   0  0  0  0  0  0  0  0  0  0  0  0
   11.6217   36.3253   30.4725 O   0  0  0  0  0  0  0  0  0  0  0  0
   14.4763   36.3266   33.5731 C   0  0  0  0  0  0  0  0  0  0  0  0
   13.1182   37.6309   34.5694 C   0  0  0  0  0  0  0  0  0  0  0  0
   15.2065   35.6137   32.6740 N   0  0  0  0  0  0  0  0  0  0  0  0
   14.6735   36.2270   34.9185 C   0  0  0  0  0  0  0  0  0  0  0  0
   13.8229   37.0451   35.5788 N   0  0  0  0  0  0  0  0  0  0  0  0
   16.1639   34.7593   33.1547 C   0  0  0  0  0  0  0  0  0  0  0  0
   15.6518   35.3489   35.4132 C   0  0  0  0  0  0  0  0  0  0  0  0
   16.3794   34.6308   34.5042 N   0  0  0  0  0  0  0  0  0  0  0  0
   15.9006   35.1931   36.8090 N   0  0  0  0  0  0  0  0  0  0  0  0
    9.7889   45.0083   32.1578 H   0  0  0  0  0  0  0  0  0  0  0  0
   10.8128   46.9714   33.0921 H   0  0  0  0  0  0  0  0  0  0  0  0
   11.8858   45.7110   32.9078 H   0  0  0  0  0  0  0  0  0  0  0  0
    8.4567   46.6885   33.4939 H   0  0  0  0  0  0  0  0  0  0  0  0
    7.8021   45.0275   33.5621 H   0  0  0  0  0  0  0  0  0  0  0  0
    9.4854   44.8964   37.8867 H   0  0  0  0  0  0  0  0  0  0  0  0
    9.4759   46.6971   37.9095 H   0  0  0  0  0  0  0  0  0  0  0  0
   11.5571   47.9182   38.2526 H   0  0  0  0  0  0  0  0  0  0  0  0
   11.6771   43.6650   37.5348 H   0  0  0  0  0  0  0  0  0  0  0  0
   13.9591   47.8792   38.8244 H   0  0  0  0  0  0  0  0  0  0  0  0
   14.0798   43.6461   38.1088 H   0  0  0  0  0  0  0  0  0  0  0  0
   15.2238   45.7480   38.7574 H   0  0  0  0  0  0  0  0  0  0  0  0
   11.3827   41.5505   31.4733 H   0  0  0  0  0  0  0  0  0  0  0  0
    9.8252   40.7181   31.7583 H   0  0  0  0  0  0  0  0  0  0  0  0
   11.7290   39.5289   30.3505 H   0  0  0  0  0  0  0  0  0  0  0  0
   10.1139   38.2718   32.6380 H   0  0  0  0  0  0  0  0  0  0  0  0
   13.6726   37.4637   31.2240 H   0  0  0  0  0  0  0  0  0  0  0  0
   10.0536   38.1086   29.7639 H   0  0  0  0  0  0  0  0  0  0  0  0
   11.2646   36.3135   32.5107 H   0  0  0  0  0  0  0  0  0  0  0  0
   12.1550   35.5033   30.6316 H   0  0  0  0  0  0  0  0  0  0  0  0
   12.3363   38.3587   34.7450 H   0  0  0  0  0  0  0  0  0  0  0  0
   16.7573   34.1788   32.4619 H   0  0  0  0  0  0  0  0  0  0  0  0
   15.3533   35.7354   37.5139 H   0  0  0  0  0  0  0  0  0  0  0  0
   16.6366   34.5314   37.1415 H   0  0  0  0  0  0  0  0  0  0  0  0
  1  2  2  0
  1  3  1  0
  3  4  1  0
  4  5  1  0
  6  1  1  0
  7  6  1  0
  6  8  1  0
  8  9  1  0
  9 10  1  0
  9 11  2  0
 10 12  1  0
 12 13  1  0
 13 14  2  0
 15 13  1  0
 14 16  1  0
 17 15  2  0
 16 18  2  0
 18 17  1  0
  4 19  2  0
  4 20  1  0
 21 20  1  0
 21 22  1  0
 22 23  1  0
 22 24  1  0
 23 25  1  0
 24 26  1  0
 24 27  1  0
 27 25  1  0
 25 28  1  0
 27 29  1  0
 30 28  1  0
 31 28  1  0
 32 30  2  0
 30 33  1  0
 34 31  2  0
 35 32  1  0
 33 36  2  0
 33 34  1  0
 37 35  2  0
 37 36  1  0
 36 38  1  0
  6 39  1  6
  7 40  1  0
  7 41  1  0
  8 42  1  0
  8 43  1  0
 12 44  1  0
 12 45  1  0
 14 46  1  0
 15 47  1  0
 16 48  1  0
 17 49  1  0
 18 50  1  0
 21 51  1  0
 21 52  1  0
 22 53  1  0
 24 54  1  0
 25 55  1  0
 26 56  1  0
 27 57  1  0
 29 58  1  0
 31 59  1  0
 35 60  1  0
 38 61  1  0
 38 62  1  0
M  CHG  1   5  -1
M  END
>  <EmbedRMS>  (140) 
0.08783459300898779

$$$$

     RDKit          3D

 62 65  0  0  0  0  0  0  0  0999 V2000
   10.2833   43.7748   33.8128 C   0  0  0  0  0  0  0  0  0  0  0  0
   11.4056   43.5915   34.3695 O   0  0  0  0  0  0  0  0  0  0  0  0
    9.3667   42.7323   33.7036 O   0  0  0  0  0  0  0  0  0  0  0  0
    9.8856   41.2339   34.2833 P   0  0  0  0  0  5  0  0  0  0  0  0
   10.3669   41.4640   35.8730 O   0  0  0  0  0  1  0  0  0  0  0  0
    9.9555   45.1128   33.2476 C   0  0  2  0  0  0  0  0  0  0  0  0
   11.0736   46.0323   33.4690 N   0  0  0  0  0  0  0  0  0  0  0  0
    8.6563   45.6731   33.8625 C   0  0  0  0  0  0  0  0  0  0  0  0
    8.8179   46.0260   35.3109 C   0  0  0  0  0  0  0  0  0  0  0  0
    8.6094   45.0477   36.2901 O   0  0  0  0  0  0  0  0  0  0  0  0
    9.1672   47.1950   35.6311 O   0  0  0  0  0  0  0  0  0  0  0  0
    8.8984   45.2517   37.6718 C   0  0  0  0  0  0  0  0  0  0  0  0
   10.3778   45.1247   37.9139 C   0  0  0  0  0  0  0  0  0  0  0  0
   11.2020   46.2626   37.9250 C   0  0  0  0  0  0  0  0  0  0  0  0
   10.9568   43.8549   38.0683 C   0  0  0  0  0  0  0  0  0  0  0  0
   12.5842   46.1293   38.0927 C   0  0  0  0  0  0  0  0  0  0  0  0
   12.3392   43.7251   38.2347 C   0  0  0  0  0  0  0  0  0  0  0  0
   13.1526   44.8616   38.2461 C   0  0  0  0  0  0  0  0  0  0  0  0
    8.8082   40.1910   34.2061 O   0  0  0  0  0  0  0  0  0  0  0  0
   11.2383   40.7920   33.3682 O   0  0  0  0  0  0  0  0  0  0  0  0
   10.9186   40.6907   31.9950 C   0  0  0  0  0  0  0  0  0  0  0  0
   11.5175   39.3823   31.4410 C   0  0  0  0  0  0  0  0  0  0  0  0
   12.7493   39.0893   32.0757 O   0  0  0  0  0  0  0  0  0  0  0  0
   10.6036   38.1899   31.6659 C   0  0  0  0  0  0  0  0  0  0  0  0
   12.9400   37.6835   32.0277 C   0  0  0  0  0  0  0  0  0  0  0  0
    9.6376   38.0783   30.6474 O   0  0  0  0  0  0  0  0  0  0  0  0
   11.5804   37.0204   31.6937 C   0  0  0  0  0  0  0  0  0  0  0  0
   13.4902   37.2178   33.3238 N   0  0  0  0  0  0  0  0  0  0  0  0
   11.6119   36.3194   30.4680 O   0  0  0  0  0  0  0  0  0  0  0  0
   14.4758   36.3272   33.5731 C   0  0  0  0  0  0  0  0  0  0  0  0
   13.1176   37.6318   34.5689 C   0  0  0  0  0  0  0  0  0  0  0  0
   15.2063   35.6142   32.6742 N   0  0  0  0  0  0  0  0  0  0  0  0
   14.6730   36.2274   34.9185 C   0  0  0  0  0  0  0  0  0  0  0  0
   13.8222   37.0458   35.5784 N   0  0  0  0  0  0  0  0  0  0  0  0
   16.1636   34.7597   33.1548 C   0  0  0  0  0  0  0  0  0  0  0  0
   15.6514   35.3493   35.4132 C   0  0  0  0  0  0  0  0  0  0  0  0
   16.3791   34.6312   34.5043 N   0  0  0  0  0  0  0  0  0  0  0  0
   15.9004   35.1933   36.8090 N   0  0  0  0  0  0  0  0  0  0  0  0
    9.7956   44.9893   32.1528 H   0  0  0  0  0  0  0  0  0  0  0  0
   11.8887   45.7047   32.9000 H   0  0  0  0  0  0  0  0  0  0  0  0
   10.8152   46.9665   33.0753 H   0  0  0  0  0  0  0  0  0  0  0  0
    8.3499   46.5816   33.2991 H   0  0  0  0  0  0  0  0  0  0  0  0
    7.8321   44.9352   33.7538 H   0  0  0  0  0  0  0  0  0  0  0  0
    8.3596   44.4811   38.2636 H   0  0  0  0  0  0  0  0  0  0  0  0
    8.5182   46.2418   38.0070 H   0  0  0  0  0  0  0  0  0  0  0  0
   10.7772   47.2510   37.8032 H   0  0  0  0  0  0  0  0  0  0  0  0
   10.3370   42.9675   38.0627 H   0  0  0  0  0  0  0  0  0  0  0  0
   13.2152   47.0090   38.1005 H   0  0  0  0  0  0  0  0  0  0  0  0
   12.7796   42.7434   38.3530 H   0  0  0  0  0  0  0  0  0  0  0  0
   14.2227   44.7600   38.3738 H   0  0  0  0  0  0  0  0  0  0  0  0
   11.3991   41.5453   31.4726 H   0  0  0  0  0  0  0  0  0  0  0  0
    9.8306   40.7394   31.7552 H   0  0  0  0  0  0  0  0  0  0  0  0
   11.6991   39.5086   30.3487 H   0  0  0  0  0  0  0  0  0  0  0  0
   10.1131   38.2590   32.6664 H   0  0  0  0  0  0  0  0  0  0  0  0
   13.6800   37.4630   31.2266 H   0  0  0  0  0  0  0  0  0  0  0  0
    8.8951   38.6906   30.8891 H   0  0  0  0  0  0  0  0  0  0  0  0
   11.2830   36.3060   32.4929 H   0  0  0  0  0  0  0  0  0  0  0  0
   11.8861   36.9590   29.7593 H   0  0  0  0  0  0  0  0  0  0  0  0
   12.3361   38.3602   34.7443 H   0  0  0  0  0  0  0  0  0  0  0  0
   16.7571   34.1793   32.4620 H   0  0  0  0  0  0  0  0  0  0  0  0
   15.3532   35.7354   37.5141 H   0  0  0  0  0  0  0  0  0  0  0  0
   16.6364   34.5316   37.1412 H   0  0  0  0  0  0  0  0  0  0  0  0
  1  2  2  0
  1  3  1  0
  3  4  1  0
  4  5  1  0
  6  1  1  0
  7  6  1  0
  6  8  1  0
  8  9  1  0
  9 10  1  0
  9 11  2  0
 10 12  1  0
 12 13  1  0
 13 14  2  0
 15 13  1  0
 14 16  1  0
 17 15  2  0
 16 18  2  0
 18 17  1  0
  4 19  2  0
  4 20  1  0
 21 20  1  0
 21 22  1  0
 22 23  1  0
 22 24  1  0
 23 25  1  0
 24 26  1  0
 24 27  1  0
 27 25  1  0
 25 28  1  0
 27 29  1  0
 30 28  1  0
 31 28  1  0
 32 30  2  0
 30 33  1  0
 34 31  2  0
 35 32  1  0
 33 36  2  0
 33 34  1  0
 37 35  2  0
 37 36  1  0
 36 38  1  0
  6 39  1  6
  7 40  1  0
  7 41  1  0
  8 42  1  0
  8 43  1  0
 12 44  1  0
 12 45  1  0
 14 46  1  0
 15 47  1  0
 16 48  1  0
 17 49  1  0
 18 50  1  0
 21 51  1  0
 21 52  1  0
 22 53  1  0
 24 54  1  0
 25 55  1  0
 26 56  1  0
 27 57  1  0
 29 58  1  0
 31 59  1  0
 35 60  1  0
 38 61  1  0
 38 62  1  0
M  CHG  1   5  -1
M  END
>  <EmbedRMS>  (141) 
0.08854548966330199

$$$$

     RDKit          3D

 62 65  0  0  0  0  0  0  0  0999 V2000
   10.2807   43.7760   33.8098 C   0  0  0  0  0  0  0  0  0  0  0  0
   11.4068   43.5917   34.3592 O   0  0  0  0  0  0  0  0  0  0  0  0
    9.3680   42.7302   33.7001 O   0  0  0  0  0  0  0  0  0  0  0  0
    9.8863   41.2341   34.2847 P   0  0  0  0  0  5  0  0  0  0  0  0
   10.3665   41.4699   35.8751 O   0  0  0  0  0  1  0  0  0  0  0  0
    9.9524   45.1160   33.2451 C   0  0  2  0  0  0  0  0  0  0  0  0
   11.0747   46.0260   33.4813 N   0  0  0  0  0  0  0  0  0  0  0  0
    8.6542   45.6910   33.8539 C   0  0  0  0  0  0  0  0  0  0  0  0
    7.4406   44.9333   33.4077 C   0  0  0  0  0  0  0  0  0  0  0  0
    7.0742   44.9545   32.0572 O   0  0  0  0  0  0  0  0  0  0  0  0
    6.7705   44.2725   34.2475 O   0  0  0  0  0  0  0  0  0  0  0  0
    5.9426   44.2563   31.5426 C   0  0  0  0  0  0  0  0  0  0  0  0
    4.6684   44.9267   31.9782 C   0  0  0  0  0  0  0  0  0  0  0  0
    3.8008   44.2963   32.8860 C   0  0  0  0  0  0  0  0  0  0  0  0
    4.3496   46.2064   31.4957 C   0  0  0  0  0  0  0  0  0  0  0  0
    2.6276   44.9364   33.2979 C   0  0  0  0  0  0  0  0  0  0  0  0
    3.1754   46.8429   31.9100 C   0  0  0  0  0  0  0  0  0  0  0  0
    2.3147   46.2082   32.8099 C   0  0  0  0  0  0  0  0  0  0  0  0
    8.8085   40.1914   34.2088 O   0  0  0  0  0  0  0  0  0  0  0  0
   11.2377   40.7906   33.3687 O   0  0  0  0  0  0  0  0  0  0  0  0
   10.9155   40.6898   31.9959 C   0  0  0  0  0  0  0  0  0  0  0  0
   11.5269   39.3898   31.4373 C   0  0  0  0  0  0  0  0  0  0  0  0
   12.7507   39.0916   32.0837 O   0  0  0  0  0  0  0  0  0  0  0  0
   10.6121   38.1916   31.6452 C   0  0  0  0  0  0  0  0  0  0  0  0
   12.9428   37.6853   32.0295 C   0  0  0  0  0  0  0  0  0  0  0  0
    9.6069   38.0858   30.6603 O   0  0  0  0  0  0  0  0  0  0  0  0
   11.5844   37.0186   31.6879 C   0  0  0  0  0  0  0  0  0  0  0  0
   13.4899   37.2163   33.3250 N   0  0  0  0  0  0  0  0  0  0  0  0
   11.6201   36.3062   30.4693 O   0  0  0  0  0  0  0  0  0  0  0  0
   14.4759   36.3263   33.5738 C   0  0  0  0  0  0  0  0  0  0  0  0
   13.1175   37.6307   34.5699 C   0  0  0  0  0  0  0  0  0  0  0  0
   15.2065   35.6139   32.6746 N   0  0  0  0  0  0  0  0  0  0  0  0
   14.6731   36.2267   34.9190 C   0  0  0  0  0  0  0  0  0  0  0  0
   13.8224   37.0450   35.5792 N   0  0  0  0  0  0  0  0  0  0  0  0
   16.1640   34.7596   33.1551 C   0  0  0  0  0  0  0  0  0  0  0  0
   15.6517   35.3489   35.4136 C   0  0  0  0  0  0  0  0  0  0  0  0
   16.3795   34.6310   34.5045 N   0  0  0  0  0  0  0  0  0  0  0  0
   15.9006   35.1931   36.8094 N   0  0  0  0  0  0  0  0  0  0  0  0
    9.8239   44.9998   32.1457 H   0  0  0  0  0  0  0  0  0  0  0  0
   10.9084   46.9080   32.9440 H   0  0  0  0  0  0  0  0  0  0  0  0
   11.1111   46.2834   34.4956 H   0  0  0  0  0  0  0  0  0  0  0  0
    8.7198   45.6874   34.9648 H   0  0  0  0  0  0  0  0  0  0  0  0
    8.5308   46.7467   33.5299 H   0  0  0  0  0  0  0  0  0  0  0  0
    5.9769   43.1918   31.8632 H   0  0  0  0  0  0  0  0  0  0  0  0
    5.9935   44.2672   30.4333 H   0  0  0  0  0  0  0  0  0  0  0  0
    4.0324   43.3131   33.2763 H   0  0  0  0  0  0  0  0  0  0  0  0
    5.0112   46.7096   30.8014 H   0  0  0  0  0  0  0  0  0  0  0  0
    1.9617   44.4470   33.9969 H   0  0  0  0  0  0  0  0  0  0  0  0
    2.9335   47.8288   31.5347 H   0  0  0  0  0  0  0  0  0  0  0  0
    1.4066   46.7023   33.1303 H   0  0  0  0  0  0  0  0  0  0  0  0
   11.3820   41.5526   31.4741 H   0  0  0  0  0  0  0  0  0  0  0  0
    9.8252   40.7190   31.7591 H   0  0  0  0  0  0  0  0  0  0  0  0
   11.7317   39.5338   30.3519 H   0  0  0  0  0  0  0  0  0  0  0  0
   10.1214   38.2683   32.6412 H   0  0  0  0  0  0  0  0  0  0  0  0
   13.6881   37.4707   31.2318 H   0  0  0  0  0  0  0  0  0  0  0  0
   10.0255   38.1751   29.7656 H   0  0  0  0  0  0  0  0  0  0  0  0
   11.2795   36.3124   32.4916 H   0  0  0  0  0  0  0  0  0  0  0  0
   11.9870   36.9099   29.7714 H   0  0  0  0  0  0  0  0  0  0  0  0
   12.3365   38.3595   34.7453 H   0  0  0  0  0  0  0  0  0  0  0  0
   16.7576   34.1794   32.4622 H   0  0  0  0  0  0  0  0  0  0  0  0
   16.6368   34.5316   37.1418 H   0  0  0  0  0  0  0  0  0  0  0  0
   15.3532   35.7351   37.5143 H   0  0  0  0  0  0  0  0  0  0  0  0
  1  2  2  0
  1  3  1  0
  3  4  1  0
  4  5  1  0
  6  1  1  0
  7  6  1  0
  6  8  1  0
  8  9  1  0
  9 10  1  0
  9 11  2  0
 10 12  1  0
 12 13  1  0
 13 14  2  0
 15 13  1  0
 14 16  1  0
 17 15  2  0
 16 18  2  0
 18 17  1  0
  4 19  2  0
  4 20  1  0
 21 20  1  0
 21 22  1  0
 22 23  1  0
 22 24  1  0
 23 25  1  0
 24 26  1  0
 24 27  1  0
 27 25  1  0
 25 28  1  0
 27 29  1  0
 30 28  1  0
 31 28  1  0
 32 30  2  0
 30 33  1  0
 34 31  2  0
 35 32  1  0
 33 36  2  0
 33 34  1  0
 37 35  2  0
 37 36  1  0
 36 38  1  0
  6 39  1  6
  7 40  1  0
  7 41  1  0
  8 42  1  0
  8 43  1  0
 12 44  1  0
 12 45  1  0
 14 46  1  0
 15 47  1  0
 16 48  1  0
 17 49  1  0
 18 50  1  0
 21 51  1  0
 21 52  1  0
 22 53  1  0
 24 54  1  0
 25 55  1  0
 26 56  1  0
 27 57  1  0
 29 58  1  0
 31 59  1  0
 35 60  1  0
 38 61  1  0
 38 62  1  0
M  CHG  1   5  -1
M  END
>  <EmbedRMS>  (142) 
0.08693520526523466

$$$$

     RDKit          3D

 62 65  0  0  0  0  0  0  0  0999 V2000
   10.2860   43.7720   33.8046 C   0  0  0  0  0  0  0  0  0  0  0  0
   11.4086   43.5884   34.3610 O   0  0  0  0  0  0  0  0  0  0  0  0
    9.3676   42.7309   33.6990 O   0  0  0  0  0  0  0  0  0  0  0  0
    9.8857   41.2339   34.2830 P   0  0  0  0  0  5  0  0  0  0  0  0
   10.3665   41.4698   35.8735 O   0  0  0  0  0  1  0  0  0  0  0  0
    9.9529   45.1149   33.2537 C   0  0  2  0  0  0  0  0  0  0  0  0
   11.0713   46.0332   33.4764 N   0  0  0  0  0  0  0  0  0  0  0  0
    8.6606   45.6661   33.8900 C   0  0  0  0  0  0  0  0  0  0  0  0
    8.7954   45.8698   35.3699 C   0  0  0  0  0  0  0  0  0  0  0  0
    9.3452   47.0625   35.8528 O   0  0  0  0  0  0  0  0  0  0  0  0
    8.4489   44.9516   36.1624 O   0  0  0  0  0  0  0  0  0  0  0  0
    9.5111   47.3419   37.2411 C   0  0  0  0  0  0  0  0  0  0  0  0
    8.1777   47.5990   37.8884 C   0  0  0  0  0  0  0  0  0  0  0  0
    7.6420   46.6870   38.8132 C   0  0  0  0  0  0  0  0  0  0  0  0
    7.4436   48.7469   37.5483 C   0  0  0  0  0  0  0  0  0  0  0  0
    6.3928   46.9266   39.3946 C   0  0  0  0  0  0  0  0  0  0  0  0
    6.1950   48.9828   38.1321 C   0  0  0  0  0  0  0  0  0  0  0  0
    5.6703   48.0738   39.0550 C   0  0  0  0  0  0  0  0  0  0  0  0
    8.8079   40.1914   34.2082 O   0  0  0  0  0  0  0  0  0  0  0  0
   11.2372   40.7901   33.3661 O   0  0  0  0  0  0  0  0  0  0  0  0
   10.9145   40.6849   31.9932 C   0  0  0  0  0  0  0  0  0  0  0  0
   11.5167   39.3773   31.4393 C   0  0  0  0  0  0  0  0  0  0  0  0
   12.7473   39.0854   32.0739 O   0  0  0  0  0  0  0  0  0  0  0  0
   10.6047   38.1867   31.6670 C   0  0  0  0  0  0  0  0  0  0  0  0
   12.9346   37.6790   32.0282 C   0  0  0  0  0  0  0  0  0  0  0  0
    9.6378   38.0917   30.6489 O   0  0  0  0  0  0  0  0  0  0  0  0
   11.5761   37.0129   31.7057 C   0  0  0  0  0  0  0  0  0  0  0  0
   13.4909   37.2177   33.3233 N   0  0  0  0  0  0  0  0  0  0  0  0
   11.6234   36.3371   30.4684 O   0  0  0  0  0  0  0  0  0  0  0  0
   14.4765   36.3271   33.5727 C   0  0  0  0  0  0  0  0  0  0  0  0
   13.1182   37.6315   34.5685 C   0  0  0  0  0  0  0  0  0  0  0  0
   15.2066   35.6137   32.6739 N   0  0  0  0  0  0  0  0  0  0  0  0
   14.6736   36.2276   34.9182 C   0  0  0  0  0  0  0  0  0  0  0  0
   13.8227   37.0457   35.5781 N   0  0  0  0  0  0  0  0  0  0  0  0
   16.1638   34.7593   33.1548 C   0  0  0  0  0  0  0  0  0  0  0  0
   15.6517   35.3492   35.4131 C   0  0  0  0  0  0  0  0  0  0  0  0
   16.3792   34.6309   34.5043 N   0  0  0  0  0  0  0  0  0  0  0  0
   15.9002   35.1934   36.8090 N   0  0  0  0  0  0  0  0  0  0  0  0
    9.7826   45.0055   32.1590 H   0  0  0  0  0  0  0  0  0  0  0  0
   10.8100   46.9716   33.0948 H   0  0  0  0  0  0  0  0  0  0  0  0
   11.8824   45.7124   32.8978 H   0  0  0  0  0  0  0  0  0  0  0  0
    7.8146   44.9738   33.6849 H   0  0  0  0  0  0  0  0  0  0  0  0
    8.4024   46.6378   33.4165 H   0  0  0  0  0  0  0  0  0  0  0  0
   10.1434   48.2485   37.3474 H   0  0  0  0  0  0  0  0  0  0  0  0
   10.0517   46.5041   37.7340 H   0  0  0  0  0  0  0  0  0  0  0  0
    8.1880   45.7914   39.0824 H   0  0  0  0  0  0  0  0  0  0  0  0
    7.8382   49.4559   36.8309 H   0  0  0  0  0  0  0  0  0  0  0  0
    5.9842   46.2219   40.1072 H   0  0  0  0  0  0  0  0  0  0  0  0
    5.6334   49.8695   37.8677 H   0  0  0  0  0  0  0  0  0  0  0  0
    4.7033   48.2573   39.5054 H   0  0  0  0  0  0  0  0  0  0  0  0
   11.3875   41.5415   31.4671 H   0  0  0  0  0  0  0  0  0  0  0  0
    9.8245   40.7213   31.7565 H   0  0  0  0  0  0  0  0  0  0  0  0
   11.6987   39.5013   30.3467 H   0  0  0  0  0  0  0  0  0  0  0  0
   10.1096   38.2771   32.6629 H   0  0  0  0  0  0  0  0  0  0  0  0
   13.6672   37.4544   31.2213 H   0  0  0  0  0  0  0  0  0  0  0  0
    8.9779   37.4157   30.9534 H   0  0  0  0  0  0  0  0  0  0  0  0
   11.2861   36.3041   32.5177 H   0  0  0  0  0  0  0  0  0  0  0  0
   10.8690   35.6918   30.4657 H   0  0  0  0  0  0  0  0  0  0  0  0
   12.3356   38.3587   34.7439 H   0  0  0  0  0  0  0  0  0  0  0  0
   16.7572   34.1786   32.4621 H   0  0  0  0  0  0  0  0  0  0  0  0
   15.3530   35.7358   37.5138 H   0  0  0  0  0  0  0  0  0  0  0  0
   16.6361   34.5315   37.1415 H   0  0  0  0  0  0  0  0  0  0  0  0
  1  2  2  0
  1  3  1  0
  3  4  1  0
  4  5  1  0
  6  1  1  0
  7  6  1  0
  6  8  1  0
  8  9  1  0
  9 10  1  0
  9 11  2  0
 10 12  1  0
 12 13  1  0
 13 14  2  0
 15 13  1  0
 14 16  1  0
 17 15  2  0
 16 18  2  0
 18 17  1  0
  4 19  2  0
  4 20  1  0
 21 20  1  0
 21 22  1  0
 22 23  1  0
 22 24  1  0
 23 25  1  0
 24 26  1  0
 24 27  1  0
 27 25  1  0
 25 28  1  0
 27 29  1  0
 30 28  1  0
 31 28  1  0
 32 30  2  0
 30 33  1  0
 34 31  2  0
 35 32  1  0
 33 36  2  0
 33 34  1  0
 37 35  2  0
 37 36  1  0
 36 38  1  0
  6 39  1  6
  7 40  1  0
  7 41  1  0
  8 42  1  0
  8 43  1  0
 12 44  1  0
 12 45  1  0
 14 46  1  0
 15 47  1  0
 16 48  1  0
 17 49  1  0
 18 50  1  0
 21 51  1  0
 21 52  1  0
 22 53  1  0
 24 54  1  0
 25 55  1  0
 26 56  1  0
 27 57  1  0
 29 58  1  0
 31 59  1  0
 35 60  1  0
 38 61  1  0
 38 62  1  0
M  CHG  1   5  -1
M  END
>  <EmbedRMS>  (143) 
0.08903182675680309

$$$$

     RDKit          3D

 62 65  0  0  0  0  0  0  0  0999 V2000
   10.2866   43.7709   33.8017 C   0  0  0  0  0  0  0  0  0  0  0  0
   11.4091   43.5869   34.3580 O   0  0  0  0  0  0  0  0  0  0  0  0
    9.3672   42.7306   33.6985 O   0  0  0  0  0  0  0  0  0  0  0  0
    9.8853   41.2344   34.2846 P   0  0  0  0  0  5  0  0  0  0  0  0
   10.3650   41.4708   35.8750 O   0  0  0  0  0  1  0  0  0  0  0  0
    9.9515   45.1163   33.2558 C   0  0  2  0  0  0  0  0  0  0  0  0
   11.0720   46.0322   33.4786 N   0  0  0  0  0  0  0  0  0  0  0  0
    8.6618   45.6676   33.9006 C   0  0  0  0  0  0  0  0  0  0  0  0
    8.7715   45.7528   35.3939 C   0  0  0  0  0  0  0  0  0  0  0  0
    9.5777   46.7401   35.9699 O   0  0  0  0  0  0  0  0  0  0  0  0
    8.1825   44.9012   36.1143 O   0  0  0  0  0  0  0  0  0  0  0  0
    9.9992   46.7008   37.3307 C   0  0  0  0  0  0  0  0  0  0  0  0
   10.9910   45.5864   37.5272 C   0  0  0  0  0  0  0  0  0  0  0  0
   10.6339   44.4250   38.2323 C   0  0  0  0  0  0  0  0  0  0  0  0
   12.2664   45.6745   36.9459 C   0  0  0  0  0  0  0  0  0  0  0  0
   11.5460   43.3731   38.3630 C   0  0  0  0  0  0  0  0  0  0  0  0
   13.1750   44.6200   37.0779 C   0  0  0  0  0  0  0  0  0  0  0  0
   12.8151   43.4700   37.7858 C   0  0  0  0  0  0  0  0  0  0  0  0
    8.8082   40.1912   34.2086 O   0  0  0  0  0  0  0  0  0  0  0  0
   11.2381   40.7904   33.3702 O   0  0  0  0  0  0  0  0  0  0  0  0
   10.9191   40.6906   31.9965 C   0  0  0  0  0  0  0  0  0  0  0  0
   11.5176   39.3825   31.4414 C   0  0  0  0  0  0  0  0  0  0  0  0
   12.7496   39.0893   32.0756 O   0  0  0  0  0  0  0  0  0  0  0  0
   10.6036   38.1900   31.6660 C   0  0  0  0  0  0  0  0  0  0  0  0
   12.9401   37.6834   32.0277 C   0  0  0  0  0  0  0  0  0  0  0  0
    9.6377   38.0786   30.6475 O   0  0  0  0  0  0  0  0  0  0  0  0
   11.5804   37.0204   31.6937 C   0  0  0  0  0  0  0  0  0  0  0  0
   13.4902   37.2178   33.3238 N   0  0  0  0  0  0  0  0  0  0  0  0
   11.6117   36.3194   30.4681 O   0  0  0  0  0  0  0  0  0  0  0  0
   14.4758   36.3272   33.5731 C   0  0  0  0  0  0  0  0  0  0  0  0
   13.1176   37.6319   34.5688 C   0  0  0  0  0  0  0  0  0  0  0  0
   15.2064   35.6142   32.6742 N   0  0  0  0  0  0  0  0  0  0  0  0
   14.6729   36.2275   34.9185 C   0  0  0  0  0  0  0  0  0  0  0  0
   13.8222   37.0459   35.5784 N   0  0  0  0  0  0  0  0  0  0  0  0
   16.1637   34.7597   33.1549 C   0  0  0  0  0  0  0  0  0  0  0  0
   15.6514   35.3493   35.4133 C   0  0  0  0  0  0  0  0  0  0  0  0
   16.3791   34.6312   34.5044 N   0  0  0  0  0  0  0  0  0  0  0  0
   15.9001   35.1935   36.8091 N   0  0  0  0  0  0  0  0  0  0  0  0
    9.7777   45.0128   32.1611 H   0  0  0  0  0  0  0  0  0  0  0  0
   11.8838   45.7084   32.9027 H   0  0  0  0  0  0  0  0  0  0  0  0
   10.8145   46.9708   33.0953 H   0  0  0  0  0  0  0  0  0  0  0  0
    8.4450   46.6799   33.4972 H   0  0  0  0  0  0  0  0  0  0  0  0
    7.8022   45.0175   33.6251 H   0  0  0  0  0  0  0  0  0  0  0  0
   10.4852   47.6674   37.5811 H   0  0  0  0  0  0  0  0  0  0  0  0
    9.1183   46.5892   38.0003 H   0  0  0  0  0  0  0  0  0  0  0  0
    9.6495   44.3300   38.6734 H   0  0  0  0  0  0  0  0  0  0  0  0
   12.5513   46.5548   36.3829 H   0  0  0  0  0  0  0  0  0  0  0  0
   11.2662   42.4794   38.9057 H   0  0  0  0  0  0  0  0  0  0  0  0
   14.1557   44.6916   36.6258 H   0  0  0  0  0  0  0  0  0  0  0  0
   13.5178   42.6527   37.8836 H   0  0  0  0  0  0  0  0  0  0  0  0
    9.8312   40.7400   31.7562 H   0  0  0  0  0  0  0  0  0  0  0  0
   11.4003   41.5456   31.4753 H   0  0  0  0  0  0  0  0  0  0  0  0
   11.6989   39.5094   30.3491 H   0  0  0  0  0  0  0  0  0  0  0  0
   10.1130   38.2590   32.6665 H   0  0  0  0  0  0  0  0  0  0  0  0
   13.6800   37.4627   31.2266 H   0  0  0  0  0  0  0  0  0  0  0  0
    8.8954   38.6911   30.8891 H   0  0  0  0  0  0  0  0  0  0  0  0
   11.2830   36.3061   32.4930 H   0  0  0  0  0  0  0  0  0  0  0  0
   11.8859   36.9590   29.7593 H   0  0  0  0  0  0  0  0  0  0  0  0
   12.3362   38.3603   34.7442 H   0  0  0  0  0  0  0  0  0  0  0  0
   16.7572   34.1793   32.4621 H   0  0  0  0  0  0  0  0  0  0  0  0
   16.6362   34.5318   37.1416 H   0  0  0  0  0  0  0  0  0  0  0  0
   15.3528   35.7357   37.5140 H   0  0  0  0  0  0  0  0  0  0  0  0
  1  2  2  0
  1  3  1  0
  3  4  1  0
  4  5  1  0
  6  1  1  0
  7  6  1  0
  6  8  1  0
  8  9  1  0
  9 10  1  0
  9 11  2  0
 10 12  1  0
 12 13  1  0
 13 14  2  0
 15 13  1  0
 14 16  1  0
 17 15  2  0
 16 18  2  0
 18 17  1  0
  4 19  2  0
  4 20  1  0
 21 20  1  0
 21 22  1  0
 22 23  1  0
 22 24  1  0
 23 25  1  0
 24 26  1  0
 24 27  1  0
 27 25  1  0
 25 28  1  0
 27 29  1  0
 30 28  1  0
 31 28  1  0
 32 30  2  0
 30 33  1  0
 34 31  2  0
 35 32  1  0
 33 36  2  0
 33 34  1  0
 37 35  2  0
 37 36  1  0
 36 38  1  0
  6 39  1  6
  7 40  1  0
  7 41  1  0
  8 42  1  0
  8 43  1  0
 12 44  1  0
 12 45  1  0
 14 46  1  0
 15 47  1  0
 16 48  1  0
 17 49  1  0
 18 50  1  0
 21 51  1  0
 21 52  1  0
 22 53  1  0
 24 54  1  0
 25 55  1  0
 26 56  1  0
 27 57  1  0
 29 58  1  0
 31 59  1  0
 35 60  1  0
 38 61  1  0
 38 62  1  0
M  CHG  1   5  -1
M  END
>  <EmbedRMS>  (144) 
0.08823170081906861

$$$$

     RDKit          3D

 62 65  0  0  0  0  0  0  0  0999 V2000
   10.2848   43.7743   33.8048 C   0  0  0  0  0  0  0  0  0  0  0  0
   11.4078   43.5908   34.3607 O   0  0  0  0  0  0  0  0  0  0  0  0
    9.3678   42.7311   33.6995 O   0  0  0  0  0  0  0  0  0  0  0  0
    9.8858   41.2346   34.2850 P   0  0  0  0  0  5  0  0  0  0  0  0
   10.3667   41.4707   35.8752 O   0  0  0  0  0  1  0  0  0  0  0  0
    9.9470   45.1172   33.2551 C   0  0  2  0  0  0  0  0  0  0  0  0
   11.0722   46.0300   33.4744 N   0  0  0  0  0  0  0  0  0  0  0  0
    8.6748   45.6497   33.9486 C   0  0  0  0  0  0  0  0  0  0  0  0
    8.1783   46.9414   33.3392 C   0  0  0  0  0  0  0  0  0  0  0  0
    7.7544   48.0308   34.1145 O   0  0  0  0  0  0  0  0  0  0  0  0
    8.0883   47.0297   32.0848 O   0  0  0  0  0  0  0  0  0  0  0  0
    7.7472   48.0553   35.5407 C   0  0  0  0  0  0  0  0  0  0  0  0
    7.1650   49.3569   36.0124 C   0  0  0  0  0  0  0  0  0  0  0  0
    5.7830   49.4695   36.2462 C   0  0  0  0  0  0  0  0  0  0  0  0
    7.9860   50.4882   36.1645 C   0  0  0  0  0  0  0  0  0  0  0  0
    5.2352   50.6895   36.6560 C   0  0  0  0  0  0  0  0  0  0  0  0
    7.4343   51.7068   36.5752 C   0  0  0  0  0  0  0  0  0  0  0  0
    6.0604   51.8067   36.8224 C   0  0  0  0  0  0  0  0  0  0  0  0
    8.8085   40.1914   34.2097 O   0  0  0  0  0  0  0  0  0  0  0  0
   11.2372   40.7902   33.3696 O   0  0  0  0  0  0  0  0  0  0  0  0
   10.9152   40.6901   31.9967 C   0  0  0  0  0  0  0  0  0  0  0  0
   11.5264   39.3902   31.4374 C   0  0  0  0  0  0  0  0  0  0  0  0
   12.7509   39.0918   32.0834 O   0  0  0  0  0  0  0  0  0  0  0  0
   10.6123   38.1915   31.6446 C   0  0  0  0  0  0  0  0  0  0  0  0
   12.9436   37.6855   32.0287 C   0  0  0  0  0  0  0  0  0  0  0  0
    9.6075   38.0859   30.6593 O   0  0  0  0  0  0  0  0  0  0  0  0
   11.5852   37.0187   31.6874 C   0  0  0  0  0  0  0  0  0  0  0  0
   13.4908   37.2166   33.3245 N   0  0  0  0  0  0  0  0  0  0  0  0
   11.6212   36.3062   30.4689 O   0  0  0  0  0  0  0  0  0  0  0  0
   14.4759   36.3257   33.5739 C   0  0  0  0  0  0  0  0  0  0  0  0
   13.1188   37.6316   34.5695 C   0  0  0  0  0  0  0  0  0  0  0  0
   15.2063   35.6125   32.6750 N   0  0  0  0  0  0  0  0  0  0  0  0
   14.6730   36.2262   34.9194 C   0  0  0  0  0  0  0  0  0  0  0  0
   13.8228   37.0452   35.5791 N   0  0  0  0  0  0  0  0  0  0  0  0
   16.1632   34.7577   33.1558 C   0  0  0  0  0  0  0  0  0  0  0  0
   15.6513   35.3482   35.4139 C   0  0  0  0  0  0  0  0  0  0  0  0
   16.3787   34.6297   34.5052 N   0  0  0  0  0  0  0  0  0  0  0  0
   15.9013   35.1924   36.8093 N   0  0  0  0  0  0  0  0  0  0  0  0
    9.7615   45.0052   32.1629 H   0  0  0  0  0  0  0  0  0  0  0  0
   10.8324   46.9645   33.0713 H   0  0  0  0  0  0  0  0  0  0  0  0
   11.8859   45.6925   32.9088 H   0  0  0  0  0  0  0  0  0  0  0  0
    8.8895   45.7694   35.0302 H   0  0  0  0  0  0  0  0  0  0  0  0
    7.8562   44.9037   33.8549 H   0  0  0  0  0  0  0  0  0  0  0  0
    8.7875   47.9486   35.9241 H   0  0  0  0  0  0  0  0  0  0  0  0
    7.1383   47.2066   35.9283 H   0  0  0  0  0  0  0  0  0  0  0  0
    5.1318   48.6134   36.1111 H   0  0  0  0  0  0  0  0  0  0  0  0
    9.0505   50.4266   35.9660 H   0  0  0  0  0  0  0  0  0  0  0  0
    4.1703   50.7680   36.8415 H   0  0  0  0  0  0  0  0  0  0  0  0
    8.0705   52.5747   36.6989 H   0  0  0  0  0  0  0  0  0  0  0  0
    5.6360   52.7509   37.1377 H   0  0  0  0  0  0  0  0  0  0  0  0
   11.3829   41.5533   31.4763 H   0  0  0  0  0  0  0  0  0  0  0  0
    9.8250   40.7217   31.7590 H   0  0  0  0  0  0  0  0  0  0  0  0
   11.7300   39.5354   30.3520 H   0  0  0  0  0  0  0  0  0  0  0  0
   10.1217   38.2669   32.6404 H   0  0  0  0  0  0  0  0  0  0  0  0
   13.6884   37.4718   31.2304 H   0  0  0  0  0  0  0  0  0  0  0  0
   10.0269   38.1708   29.7645 H   0  0  0  0  0  0  0  0  0  0  0  0
   11.2822   36.3124   32.4911 H   0  0  0  0  0  0  0  0  0  0  0  0
   11.9847   36.9113   29.7704 H   0  0  0  0  0  0  0  0  0  0  0  0
   12.3394   38.3622   34.7447 H   0  0  0  0  0  0  0  0  0  0  0  0
   16.7558   34.1755   32.4637 H   0  0  0  0  0  0  0  0  0  0  0  0
   15.3548   35.7341   37.5153 H   0  0  0  0  0  0  0  0  0  0  0  0
   16.6382   34.5308   37.1396 H   0  0  0  0  0  0  0  0  0  0  0  0
  1  2  2  0
  1  3  1  0
  3  4  1  0
  4  5  1  0
  6  1  1  0
  7  6  1  0
  6  8  1  0
  8  9  1  0
  9 10  1  0
  9 11  2  0
 10 12  1  0
 12 13  1  0
 13 14  2  0
 15 13  1  0
 14 16  1  0
 17 15  2  0
 16 18  2  0
 18 17  1  0
  4 19  2  0
  4 20  1  0
 21 20  1  0
 21 22  1  0
 22 23  1  0
 22 24  1  0
 23 25  1  0
 24 26  1  0
 24 27  1  0
 27 25  1  0
 25 28  1  0
 27 29  1  0
 30 28  1  0
 31 28  1  0
 32 30  2  0
 30 33  1  0
 34 31  2  0
 35 32  1  0
 33 36  2  0
 33 34  1  0
 37 35  2  0
 37 36  1  0
 36 38  1  0
  6 39  1  6
  7 40  1  0
  7 41  1  0
  8 42  1  0
  8 43  1  0
 12 44  1  0
 12 45  1  0
 14 46  1  0
 15 47  1  0
 16 48  1  0
 17 49  1  0
 18 50  1  0
 21 51  1  0
 21 52  1  0
 22 53  1  0
 24 54  1  0
 25 55  1  0
 26 56  1  0
 27 57  1  0
 29 58  1  0
 31 59  1  0
 35 60  1  0
 38 61  1  0
 38 62  1  0
M  CHG  1   5  -1
M  END
>  <EmbedRMS>  (145) 
0.08710627177642115

$$$$

     RDKit          3D

 62 65  0  0  0  0  0  0  0  0999 V2000
   10.2871   43.7715   33.8027 C   0  0  0  0  0  0  0  0  0  0  0  0
   11.4090   43.5882   34.3603 O   0  0  0  0  0  0  0  0  0  0  0  0
    9.3676   42.7310   33.6993 O   0  0  0  0  0  0  0  0  0  0  0  0
    9.8848   41.2343   34.2847 P   0  0  0  0  0  5  0  0  0  0  0  0
   10.3667   41.4692   35.8741 O   0  0  0  0  0  1  0  0  0  0  0  0
    9.9537   45.1148   33.2516 C   0  0  2  0  0  0  0  0  0  0  0  0
   11.0694   46.0349   33.4799 N   0  0  0  0  0  0  0  0  0  0  0  0
    8.6568   45.6651   33.8802 C   0  0  0  0  0  0  0  0  0  0  0  0
    8.7864   45.8876   35.3586 C   0  0  0  0  0  0  0  0  0  0  0  0
    8.7935   44.7865   36.2188 O   0  0  0  0  0  0  0  0  0  0  0  0
    8.9131   47.0585   35.8100 O   0  0  0  0  0  0  0  0  0  0  0  0
    8.9116   44.9087   37.6312 C   0  0  0  0  0  0  0  0  0  0  0  0
    8.9929   43.5380   38.2367 C   0  0  0  0  0  0  0  0  0  0  0  0
   10.2096   43.0490   38.7419 C   0  0  0  0  0  0  0  0  0  0  0  0
    7.8587   42.7101   38.2508 C   0  0  0  0  0  0  0  0  0  0  0  0
   10.2836   41.7551   39.2678 C   0  0  0  0  0  0  0  0  0  0  0  0
    7.9376   41.4163   38.7755 C   0  0  0  0  0  0  0  0  0  0  0  0
    9.1487   40.9396   39.2847 C   0  0  0  0  0  0  0  0  0  0  0  0
    8.8072   40.1916   34.2097 O   0  0  0  0  0  0  0  0  0  0  0  0
   11.2364   40.7899   33.3692 O   0  0  0  0  0  0  0  0  0  0  0  0
   10.9152   40.6896   31.9961 C   0  0  0  0  0  0  0  0  0  0  0  0
   11.5269   39.3898   31.4374 C   0  0  0  0  0  0  0  0  0  0  0  0
   12.7507   39.0917   32.0839 O   0  0  0  0  0  0  0  0  0  0  0  0
   10.6121   38.1915   31.6452 C   0  0  0  0  0  0  0  0  0  0  0  0
   12.9429   37.6853   32.0296 C   0  0  0  0  0  0  0  0  0  0  0  0
    9.6069   38.0858   30.6603 O   0  0  0  0  0  0  0  0  0  0  0  0
   11.5845   37.0186   31.6880 C   0  0  0  0  0  0  0  0  0  0  0  0
   13.4898   37.2164   33.3250 N   0  0  0  0  0  0  0  0  0  0  0  0
   11.6202   36.3063   30.4693 O   0  0  0  0  0  0  0  0  0  0  0  0
   14.4758   36.3264   33.5739 C   0  0  0  0  0  0  0  0  0  0  0  0
   13.1175   37.6308   34.5700 C   0  0  0  0  0  0  0  0  0  0  0  0
   15.2065   35.6139   32.6746 N   0  0  0  0  0  0  0  0  0  0  0  0
   14.6731   36.2268   34.9191 C   0  0  0  0  0  0  0  0  0  0  0  0
   13.8224   37.0451   35.5793 N   0  0  0  0  0  0  0  0  0  0  0  0
   16.1640   34.7596   33.1551 C   0  0  0  0  0  0  0  0  0  0  0  0
   15.6517   35.3489   35.4136 C   0  0  0  0  0  0  0  0  0  0  0  0
   16.3795   34.6310   34.5046 N   0  0  0  0  0  0  0  0  0  0  0  0
   15.9005   35.1931   36.8094 N   0  0  0  0  0  0  0  0  0  0  0  0
    9.7893   45.0048   32.1560 H   0  0  0  0  0  0  0  0  0  0  0  0
   10.8073   46.9734   33.0991 H   0  0  0  0  0  0  0  0  0  0  0  0
   11.8832   45.7167   32.9035 H   0  0  0  0  0  0  0  0  0  0  0  0
    7.8195   44.9578   33.6952 H   0  0  0  0  0  0  0  0  0  0  0  0
    8.3853   46.6219   33.3826 H   0  0  0  0  0  0  0  0  0  0  0  0
    8.0241   45.4427   38.0349 H   0  0  0  0  0  0  0  0  0  0  0  0
    9.8180   45.5028   37.8817 H   0  0  0  0  0  0  0  0  0  0  0  0
   11.1004   43.6644   38.7243 H   0  0  0  0  0  0  0  0  0  0  0  0
    6.9170   43.0654   37.8506 H   0  0  0  0  0  0  0  0  0  0  0  0
   11.2224   41.3826   39.6567 H   0  0  0  0  0  0  0  0  0  0  0  0
    7.0607   40.7820   38.7841 H   0  0  0  0  0  0  0  0  0  0  0  0
    9.2086   39.9374   39.6888 H   0  0  0  0  0  0  0  0  0  0  0  0
    9.8251   40.7188   31.7589 H   0  0  0  0  0  0  0  0  0  0  0  0
   11.3822   41.5527   31.4751 H   0  0  0  0  0  0  0  0  0  0  0  0
   11.7317   39.5339   30.3520 H   0  0  0  0  0  0  0  0  0  0  0  0
   10.1214   38.2682   32.6413 H   0  0  0  0  0  0  0  0  0  0  0  0
   13.6882   37.4708   31.2320 H   0  0  0  0  0  0  0  0  0  0  0  0
   10.0256   38.1751   29.7656 H   0  0  0  0  0  0  0  0  0  0  0  0
   11.2796   36.3123   32.4916 H   0  0  0  0  0  0  0  0  0  0  0  0
   11.9872   36.9099   29.7715 H   0  0  0  0  0  0  0  0  0  0  0  0
   12.3365   38.3597   34.7454 H   0  0  0  0  0  0  0  0  0  0  0  0
   16.7576   34.1795   32.4622 H   0  0  0  0  0  0  0  0  0  0  0  0
   15.3531   35.7351   37.5144 H   0  0  0  0  0  0  0  0  0  0  0  0
   16.6367   34.5316   37.1418 H   0  0  0  0  0  0  0  0  0  0  0  0
  1  2  2  0
  1  3  1  0
  3  4  1  0
  4  5  1  0
  6  1  1  0
  7  6  1  0
  6  8  1  0
  8  9  1  0
  9 10  1  0
  9 11  2  0
 10 12  1  0
 12 13  1  0
 13 14  2  0
 15 13  1  0
 14 16  1  0
 17 15  2  0
 16 18  2  0
 18 17  1  0
  4 19  2  0
  4 20  1  0
 21 20  1  0
 21 22  1  0
 22 23  1  0
 22 24  1  0
 23 25  1  0
 24 26  1  0
 24 27  1  0
 27 25  1  0
 25 28  1  0
 27 29  1  0
 30 28  1  0
 31 28  1  0
 32 30  2  0
 30 33  1  0
 34 31  2  0
 35 32  1  0
 33 36  2  0
 33 34  1  0
 37 35  2  0
 37 36  1  0
 36 38  1  0
  6 39  1  6
  7 40  1  0
  7 41  1  0
  8 42  1  0
  8 43  1  0
 12 44  1  0
 12 45  1  0
 14 46  1  0
 15 47  1  0
 16 48  1  0
 17 49  1  0
 18 50  1  0
 21 51  1  0
 21 52  1  0
 22 53  1  0
 24 54  1  0
 25 55  1  0
 26 56  1  0
 27 57  1  0
 29 58  1  0
 31 59  1  0
 35 60  1  0
 38 61  1  0
 38 62  1  0
M  CHG  1   5  -1
M  END
>  <EmbedRMS>  (146) 
0.08703049715036268

$$$$

     RDKit          3D

 62 65  0  0  0  0  0  0  0  0999 V2000
   10.2859   43.7714   33.8040 C   0  0  0  0  0  0  0  0  0  0  0  0
   11.4109   43.5873   34.3551 O   0  0  0  0  0  0  0  0  0  0  0  0
    9.3665   42.7312   33.7004 O   0  0  0  0  0  0  0  0  0  0  0  0
    9.8853   41.2343   34.2837 P   0  0  0  0  0  5  0  0  0  0  0  0
   10.3664   41.4698   35.8740 O   0  0  0  0  0  1  0  0  0  0  0  0
    9.9565   45.1117   33.2475 C   0  0  2  0  0  0  0  0  0  0  0  0
   11.0680   46.0359   33.4846 N   0  0  0  0  0  0  0  0  0  0  0  0
    8.6125   45.6668   33.7868 C   0  0  0  0  0  0  0  0  0  0  0  0
    8.3948   45.4598   35.2625 C   0  0  0  0  0  0  0  0  0  0  0  0
    9.4547   45.6112   36.1599 O   0  0  0  0  0  0  0  0  0  0  0  0
    7.2402   45.1756   35.6834 O   0  0  0  0  0  0  0  0  0  0  0  0
    9.3314   45.3518   37.5528 C   0  0  0  0  0  0  0  0  0  0  0  0
   10.6755   45.5104   38.1992 C   0  0  0  0  0  0  0  0  0  0  0  0
   11.0262   46.7156   38.8298 C   0  0  0  0  0  0  0  0  0  0  0  0
   11.6219   44.4760   38.1141 C   0  0  0  0  0  0  0  0  0  0  0  0
   12.2971   46.8709   39.3927 C   0  0  0  0  0  0  0  0  0  0  0  0
   12.8917   44.6355   38.6775 C   0  0  0  0  0  0  0  0  0  0  0  0
   13.2282   45.8310   39.3187 C   0  0  0  0  0  0  0  0  0  0  0  0
    8.8076   40.1915   34.2088 O   0  0  0  0  0  0  0  0  0  0  0  0
   11.2366   40.7907   33.3662 O   0  0  0  0  0  0  0  0  0  0  0  0
   10.9133   40.6844   31.9935 C   0  0  0  0  0  0  0  0  0  0  0  0
   11.5173   39.3774   31.4397 C   0  0  0  0  0  0  0  0  0  0  0  0
   12.7476   39.0870   32.0758 O   0  0  0  0  0  0  0  0  0  0  0  0
   10.6068   38.1851   31.6658 C   0  0  0  0  0  0  0  0  0  0  0  0
   12.9372   37.6812   32.0291 C   0  0  0  0  0  0  0  0  0  0  0  0
    9.6404   38.0883   30.6476 O   0  0  0  0  0  0  0  0  0  0  0  0
   11.5789   37.0134   31.7045 C   0  0  0  0  0  0  0  0  0  0  0  0
   13.4915   37.2182   33.3239 N   0  0  0  0  0  0  0  0  0  0  0  0
   11.6125   36.3389   30.4674 O   0  0  0  0  0  0  0  0  0  0  0  0
   14.4766   36.3272   33.5731 C   0  0  0  0  0  0  0  0  0  0  0  0
   13.1184   37.6318   34.5691 C   0  0  0  0  0  0  0  0  0  0  0  0
   15.2066   35.6139   32.6741 N   0  0  0  0  0  0  0  0  0  0  0  0
   14.6735   36.2274   34.9184 C   0  0  0  0  0  0  0  0  0  0  0  0
   13.8228   37.0456   35.5785 N   0  0  0  0  0  0  0  0  0  0  0  0
   16.1637   34.7593   33.1548 C   0  0  0  0  0  0  0  0  0  0  0  0
   15.6517   35.3491   35.4132 C   0  0  0  0  0  0  0  0  0  0  0  0
   16.3792   34.6308   34.5043 N   0  0  0  0  0  0  0  0  0  0  0  0
   15.9004   35.1932   36.8090 N   0  0  0  0  0  0  0  0  0  0  0  0
    9.8516   44.9863   32.1470 H   0  0  0  0  0  0  0  0  0  0  0  0
   10.8912   46.9158   32.9471 H   0  0  0  0  0  0  0  0  0  0  0  0
   11.1180   46.2969   34.4946 H   0  0  0  0  0  0  0  0  0  0  0  0
    8.5347   46.7521   33.5629 H   0  0  0  0  0  0  0  0  0  0  0  0
    7.7858   45.1651   33.2367 H   0  0  0  0  0  0  0  0  0  0  0  0
    8.5942   46.0534   38.0009 H   0  0  0  0  0  0  0  0  0  0  0  0
    8.9616   44.3146   37.7100 H   0  0  0  0  0  0  0  0  0  0  0  0
   10.3185   47.5335   38.8846 H   0  0  0  0  0  0  0  0  0  0  0  0
   11.3768   43.5495   37.6100 H   0  0  0  0  0  0  0  0  0  0  0  0
   12.5616   47.7991   39.8825 H   0  0  0  0  0  0  0  0  0  0  0  0
   13.6161   43.8339   38.6134 H   0  0  0  0  0  0  0  0  0  0  0  0
   14.2119   45.9536   39.7531 H   0  0  0  0  0  0  0  0  0  0  0  0
   11.3845   41.5415   31.4668 H   0  0  0  0  0  0  0  0  0  0  0  0
    9.8230   40.7187   31.7575 H   0  0  0  0  0  0  0  0  0  0  0  0
   11.7005   39.5020   30.3473 H   0  0  0  0  0  0  0  0  0  0  0  0
   10.1096   38.2750   32.6606 H   0  0  0  0  0  0  0  0  0  0  0  0
   13.6713   37.4593   31.2228 H   0  0  0  0  0  0  0  0  0  0  0  0
    9.0033   37.3835   30.9350 H   0  0  0  0  0  0  0  0  0  0  0  0
   11.2706   36.3048   32.5088 H   0  0  0  0  0  0  0  0  0  0  0  0
   12.1444   35.5137   30.6141 H   0  0  0  0  0  0  0  0  0  0  0  0
   12.3362   38.3593   34.7445 H   0  0  0  0  0  0  0  0  0  0  0  0
   16.7570   34.1787   32.4620 H   0  0  0  0  0  0  0  0  0  0  0  0
   15.3532   35.7356   37.5139 H   0  0  0  0  0  0  0  0  0  0  0  0
   16.6363   34.5314   37.1415 H   0  0  0  0  0  0  0  0  0  0  0  0
  1  2  2  0
  1  3  1  0
  3  4  1  0
  4  5  1  0
  6  1  1  0
  7  6  1  0
  6  8  1  0
  8  9  1  0
  9 10  1  0
  9 11  2  0
 10 12  1  0
 12 13  1  0
 13 14  2  0
 15 13  1  0
 14 16  1  0
 17 15  2  0
 16 18  2  0
 18 17  1  0
  4 19  2  0
  4 20  1  0
 21 20  1  0
 21 22  1  0
 22 23  1  0
 22 24  1  0
 23 25  1  0
 24 26  1  0
 24 27  1  0
 27 25  1  0
 25 28  1  0
 27 29  1  0
 30 28  1  0
 31 28  1  0
 32 30  2  0
 30 33  1  0
 34 31  2  0
 35 32  1  0
 33 36  2  0
 33 34  1  0
 37 35  2  0
 37 36  1  0
 36 38  1  0
  6 39  1  6
  7 40  1  0
  7 41  1  0
  8 42  1  0
  8 43  1  0
 12 44  1  0
 12 45  1  0
 14 46  1  0
 15 47  1  0
 16 48  1  0
 17 49  1  0
 18 50  1  0
 21 51  1  0
 21 52  1  0
 22 53  1  0
 24 54  1  0
 25 55  1  0
 26 56  1  0
 27 57  1  0
 29 58  1  0
 31 59  1  0
 35 60  1  0
 38 61  1  0
 38 62  1  0
M  CHG  1   5  -1
M  END
>  <EmbedRMS>  (147) 
0.0886621501611234

$$$$

     RDKit          3D

 62 65  0  0  0  0  0  0  0  0999 V2000
   10.2811   43.7757   33.8109 C   0  0  0  0  0  0  0  0  0  0  0  0
   11.4042   43.5924   34.3665 O   0  0  0  0  0  0  0  0  0  0  0  0
    9.3698   42.7288   33.6989 O   0  0  0  0  0  0  0  0  0  0  0  0
    9.8873   41.2328   34.2825 P   0  0  0  0  0  5  0  0  0  0  0  0
   10.3672   41.4684   35.8732 O   0  0  0  0  0  1  0  0  0  0  0  0
    9.9487   45.1201   33.2529 C   0  0  2  0  0  0  0  0  0  0  0  0
   11.0785   46.0252   33.4703 N   0  0  0  0  0  0  0  0  0  0  0  0
    8.6855   45.7062   33.9231 C   0  0  0  0  0  0  0  0  0  0  0  0
    7.4385   44.9218   33.6305 C   0  0  0  0  0  0  0  0  0  0  0  0
    7.2952   44.2670   32.4034 O   0  0  0  0  0  0  0  0  0  0  0  0
    6.5114   44.8893   34.4849 O   0  0  0  0  0  0  0  0  0  0  0  0
    6.1676   43.4603   32.0858 C   0  0  0  0  0  0  0  0  0  0  0  0
    6.4306   42.7419   30.7958 C   0  0  0  0  0  0  0  0  0  0  0  0
    6.1489   43.3643   29.5689 C   0  0  0  0  0  0  0  0  0  0  0  0
    7.0358   41.4742   30.8032 C   0  0  0  0  0  0  0  0  0  0  0  0
    6.4436   42.7140   28.3663 C   0  0  0  0  0  0  0  0  0  0  0  0
    7.3294   40.8279   29.5986 C   0  0  0  0  0  0  0  0  0  0  0  0
    7.0317   41.4461   28.3811 C   0  0  0  0  0  0  0  0  0  0  0  0
    8.8086   40.1911   34.2071 O   0  0  0  0  0  0  0  0  0  0  0  0
   11.2384   40.7899   33.3652 O   0  0  0  0  0  0  0  0  0  0  0  0
   10.9151   40.6850   31.9925 C   0  0  0  0  0  0  0  0  0  0  0  0
   11.5166   39.3773   31.4387 C   0  0  0  0  0  0  0  0  0  0  0  0
   12.7473   39.0854   32.0732 O   0  0  0  0  0  0  0  0  0  0  0  0
   10.6046   38.1870   31.6670 C   0  0  0  0  0  0  0  0  0  0  0  0
   12.9344   37.6790   32.0281 C   0  0  0  0  0  0  0  0  0  0  0  0
    9.6385   38.0910   30.6487 O   0  0  0  0  0  0  0  0  0  0  0  0
   11.5758   37.0130   31.7059 C   0  0  0  0  0  0  0  0  0  0  0  0
   13.4909   37.2178   33.3233 N   0  0  0  0  0  0  0  0  0  0  0  0
   11.6229   36.3370   30.4687 O   0  0  0  0  0  0  0  0  0  0  0  0
   14.4765   36.3272   33.5727 C   0  0  0  0  0  0  0  0  0  0  0  0
   13.1181   37.6316   34.5685 C   0  0  0  0  0  0  0  0  0  0  0  0
   15.2066   35.6138   32.6739 N   0  0  0  0  0  0  0  0  0  0  0  0
   14.6735   36.2276   34.9181 C   0  0  0  0  0  0  0  0  0  0  0  0
   13.8226   37.0458   35.5781 N   0  0  0  0  0  0  0  0  0  0  0  0
   16.1638   34.7593   33.1547 C   0  0  0  0  0  0  0  0  0  0  0  0
   15.6516   35.3493   35.4131 C   0  0  0  0  0  0  0  0  0  0  0  0
   16.3792   34.6309   34.5042 N   0  0  0  0  0  0  0  0  0  0  0  0
   15.9002   35.1934   36.8089 N   0  0  0  0  0  0  0  0  0  0  0  0
    9.7747   45.0178   32.1577 H   0  0  0  0  0  0  0  0  0  0  0  0
   10.8366   46.9619   33.0720 H   0  0  0  0  0  0  0  0  0  0  0  0
   11.8888   45.6856   32.9011 H   0  0  0  0  0  0  0  0  0  0  0  0
    8.5202   46.7417   33.5558 H   0  0  0  0  0  0  0  0  0  0  0  0
    8.8419   45.7601   35.0234 H   0  0  0  0  0  0  0  0  0  0  0  0
    5.2633   44.1007   31.9955 H   0  0  0  0  0  0  0  0  0  0  0  0
    5.9888   42.7235   32.9000 H   0  0  0  0  0  0  0  0  0  0  0  0
    5.7052   44.3520   29.5442 H   0  0  0  0  0  0  0  0  0  0  0  0
    7.2806   40.9882   31.7395 H   0  0  0  0  0  0  0  0  0  0  0  0
    6.2206   43.1953   27.4228 H   0  0  0  0  0  0  0  0  0  0  0  0
    7.7902   39.8493   29.6084 H   0  0  0  0  0  0  0  0  0  0  0  0
    7.2611   40.9450   27.4496 H   0  0  0  0  0  0  0  0  0  0  0  0
   11.3873   41.5417   31.4660 H   0  0  0  0  0  0  0  0  0  0  0  0
    9.8260   40.7209   31.7561 H   0  0  0  0  0  0  0  0  0  0  0  0
   11.6982   39.5011   30.3460 H   0  0  0  0  0  0  0  0  0  0  0  0
   10.1094   38.2781   32.6629 H   0  0  0  0  0  0  0  0  0  0  0  0
   13.6669   37.4540   31.2211 H   0  0  0  0  0  0  0  0  0  0  0  0
    8.9712   37.4249   30.9587 H   0  0  0  0  0  0  0  0  0  0  0  0
   11.2857   36.3044   32.5180 H   0  0  0  0  0  0  0  0  0  0  0  0
   10.8669   35.6937   30.4653 H   0  0  0  0  0  0  0  0  0  0  0  0
   12.3355   38.3587   34.7438 H   0  0  0  0  0  0  0  0  0  0  0  0
   16.7571   34.1786   32.4621 H   0  0  0  0  0  0  0  0  0  0  0  0
   16.6360   34.5315   37.1415 H   0  0  0  0  0  0  0  0  0  0  0  0
   15.3530   35.7358   37.5137 H   0  0  0  0  0  0  0  0  0  0  0  0
  1  2  2  0
  1  3  1  0
  3  4  1  0
  4  5  1  0
  6  1  1  0
  7  6  1  0
  6  8  1  0
  8  9  1  0
  9 10  1  0
  9 11  2  0
 10 12  1  0
 12 13  1  0
 13 14  2  0
 15 13  1  0
 14 16  1  0
 17 15  2  0
 16 18  2  0
 18 17  1  0
  4 19  2  0
  4 20  1  0
 21 20  1  0
 21 22  1  0
 22 23  1  0
 22 24  1  0
 23 25  1  0
 24 26  1  0
 24 27  1  0
 27 25  1  0
 25 28  1  0
 27 29  1  0
 30 28  1  0
 31 28  1  0
 32 30  2  0
 30 33  1  0
 34 31  2  0
 35 32  1  0
 33 36  2  0
 33 34  1  0
 37 35  2  0
 37 36  1  0
 36 38  1  0
  6 39  1  6
  7 40  1  0
  7 41  1  0
  8 42  1  0
  8 43  1  0
 12 44  1  0
 12 45  1  0
 14 46  1  0
 15 47  1  0
 16 48  1  0
 17 49  1  0
 18 50  1  0
 21 51  1  0
 21 52  1  0
 22 53  1  0
 24 54  1  0
 25 55  1  0
 26 56  1  0
 27 57  1  0
 29 58  1  0
 31 59  1  0
 35 60  1  0
 38 61  1  0
 38 62  1  0
M  CHG  1   5  -1
M  END
>  <EmbedRMS>  (148) 
0.08941671389276766

$$$$

     RDKit          3D

 62 65  0  0  0  0  0  0  0  0999 V2000
   10.2865   43.7710   33.8017 C   0  0  0  0  0  0  0  0  0  0  0  0
   11.4090   43.5869   34.3579 O   0  0  0  0  0  0  0  0  0  0  0  0
    9.3669   42.7309   33.6987 O   0  0  0  0  0  0  0  0  0  0  0  0
    9.8852   41.2345   34.2842 P   0  0  0  0  0  5  0  0  0  0  0  0
   10.3661   41.4707   35.8743 O   0  0  0  0  0  1  0  0  0  0  0  0
    9.9516   45.1163   33.2555 C   0  0  2  0  0  0  0  0  0  0  0  0
   11.0720   46.0323   33.4788 N   0  0  0  0  0  0  0  0  0  0  0  0
    8.6615   45.6676   33.8994 C   0  0  0  0  0  0  0  0  0  0  0  0
    8.7696   45.7521   35.3929 C   0  0  0  0  0  0  0  0  0  0  0  0
    9.5769   46.7376   35.9703 O   0  0  0  0  0  0  0  0  0  0  0  0
    8.1779   44.9014   36.1123 O   0  0  0  0  0  0  0  0  0  0  0  0
    9.9950   46.6981   37.3322 C   0  0  0  0  0  0  0  0  0  0  0  0
   10.9830   45.5811   37.5321 C   0  0  0  0  0  0  0  0  0  0  0  0
   10.6212   44.4218   38.2384 C   0  0  0  0  0  0  0  0  0  0  0  0
   12.2597   45.6645   36.9531 C   0  0  0  0  0  0  0  0  0  0  0  0
   11.5300   43.3675   38.3725 C   0  0  0  0  0  0  0  0  0  0  0  0
   13.1651   44.6075   37.0886 C   0  0  0  0  0  0  0  0  0  0  0  0
   12.8005   43.4598   37.7976 C   0  0  0  0  0  0  0  0  0  0  0  0
    8.8078   40.1915   34.2091 O   0  0  0  0  0  0  0  0  0  0  0  0
   11.2367   40.7908   33.3676 O   0  0  0  0  0  0  0  0  0  0  0  0
   10.9137   40.6861   31.9950 C   0  0  0  0  0  0  0  0  0  0  0  0
   11.5170   39.3799   31.4411 C   0  0  0  0  0  0  0  0  0  0  0  0
   12.7488   39.0887   32.0763 O   0  0  0  0  0  0  0  0  0  0  0  0
   10.6051   38.1877   31.6660 C   0  0  0  0  0  0  0  0  0  0  0  0
   12.9412   37.6829   32.0278 C   0  0  0  0  0  0  0  0  0  0  0  0
    9.6359   38.0931   30.6503 O   0  0  0  0  0  0  0  0  0  0  0  0
   11.5827   37.0180   31.6937 C   0  0  0  0  0  0  0  0  0  0  0  0
   13.4909   37.2177   33.3240 N   0  0  0  0  0  0  0  0  0  0  0  0
   11.6141   36.3181   30.4675 O   0  0  0  0  0  0  0  0  0  0  0  0
   14.4762   36.3270   33.5734 C   0  0  0  0  0  0  0  0  0  0  0  0
   13.1180   37.6318   34.5689 C   0  0  0  0  0  0  0  0  0  0  0  0
   15.2067   35.6140   32.6744 N   0  0  0  0  0  0  0  0  0  0  0  0
   14.6731   36.2273   34.9187 C   0  0  0  0  0  0  0  0  0  0  0  0
   13.8224   37.0457   35.5785 N   0  0  0  0  0  0  0  0  0  0  0  0
   16.1638   34.7595   33.1551 C   0  0  0  0  0  0  0  0  0  0  0  0
   15.6515   35.3492   35.4135 C   0  0  0  0  0  0  0  0  0  0  0  0
   16.3792   34.6310   34.5046 N   0  0  0  0  0  0  0  0  0  0  0  0
   15.9002   35.1934   36.8093 N   0  0  0  0  0  0  0  0  0  0  0  0
    9.7784   45.0127   32.1608 H   0  0  0  0  0  0  0  0  0  0  0  0
   10.8146   46.9709   33.0954 H   0  0  0  0  0  0  0  0  0  0  0  0
   11.8840   45.7086   32.9033 H   0  0  0  0  0  0  0  0  0  0  0  0
    7.8019   45.0180   33.6228 H   0  0  0  0  0  0  0  0  0  0  0  0
    8.4452   46.6802   33.4964 H   0  0  0  0  0  0  0  0  0  0  0  0
   10.4830   47.6635   37.5831 H   0  0  0  0  0  0  0  0  0  0  0  0
    9.1120   46.5895   37.9996 H   0  0  0  0  0  0  0  0  0  0  0  0
    9.6358   44.3304   38.6779 H   0  0  0  0  0  0  0  0  0  0  0  0
   12.5483   46.5431   36.3892 H   0  0  0  0  0  0  0  0  0  0  0  0
   11.2466   42.4755   38.9162 H   0  0  0  0  0  0  0  0  0  0  0  0
   14.1468   44.6756   36.6382 H   0  0  0  0  0  0  0  0  0  0  0  0
   13.5006   42.6406   37.8981 H   0  0  0  0  0  0  0  0  0  0  0  0
   11.3858   41.5435   31.4694 H   0  0  0  0  0  0  0  0  0  0  0  0
    9.8236   40.7212   31.7583 H   0  0  0  0  0  0  0  0  0  0  0  0
   11.6994   39.5068   30.3489 H   0  0  0  0  0  0  0  0  0  0  0  0
   10.1120   38.2723   32.6633 H   0  0  0  0  0  0  0  0  0  0  0  0
   13.6816   37.4633   31.2270 H   0  0  0  0  0  0  0  0  0  0  0  0
    9.0037   37.3829   30.9349 H   0  0  0  0  0  0  0  0  0  0  0  0
   11.2846   36.3041   32.4929 H   0  0  0  0  0  0  0  0  0  0  0  0
   11.8850   36.9591   29.7589 H   0  0  0  0  0  0  0  0  0  0  0  0
   12.3366   38.3603   34.7442 H   0  0  0  0  0  0  0  0  0  0  0  0
   16.7574   34.1791   32.4623 H   0  0  0  0  0  0  0  0  0  0  0  0
   16.6363   34.5317   37.1418 H   0  0  0  0  0  0  0  0  0  0  0  0
   15.3530   35.7356   37.5141 H   0  0  0  0  0  0  0  0  0  0  0  0
  1  2  2  0
  1  3  1  0
  3  4  1  0
  4  5  1  0
  6  1  1  0
  7  6  1  0
  6  8  1  0
  8  9  1  0
  9 10  1  0
  9 11  2  0
 10 12  1  0
 12 13  1  0
 13 14  2  0
 15 13  1  0
 14 16  1  0
 17 15  2  0
 16 18  2  0
 18 17  1  0
  4 19  2  0
  4 20  1  0
 21 20  1  0
 21 22  1  0
 22 23  1  0
 22 24  1  0
 23 25  1  0
 24 26  1  0
 24 27  1  0
 27 25  1  0
 25 28  1  0
 27 29  1  0
 30 28  1  0
 31 28  1  0
 32 30  2  0
 30 33  1  0
 34 31  2  0
 35 32  1  0
 33 36  2  0
 33 34  1  0
 37 35  2  0
 37 36  1  0
 36 38  1  0
  6 39  1  6
  7 40  1  0
  7 41  1  0
  8 42  1  0
  8 43  1  0
 12 44  1  0
 12 45  1  0
 14 46  1  0
 15 47  1  0
 16 48  1  0
 17 49  1  0
 18 50  1  0
 21 51  1  0
 21 52  1  0
 22 53  1  0
 24 54  1  0
 25 55  1  0
 26 56  1  0
 27 57  1  0
 29 58  1  0
 31 59  1  0
 35 60  1  0
 38 61  1  0
 38 62  1  0
M  CHG  1   5  -1
M  END
>  <EmbedRMS>  (149) 
0.08775576534933834

$$$$

     RDKit          3D

 62 65  0  0  0  0  0  0  0  0999 V2000
   10.2859   43.7728   33.8071 C   0  0  0  0  0  0  0  0  0  0  0  0
   11.4093   43.5890   34.3612 O   0  0  0  0  0  0  0  0  0  0  0  0
    9.3680   42.7312   33.7007 O   0  0  0  0  0  0  0  0  0  0  0  0
    9.8858   41.2337   34.2834 P   0  0  0  0  0  5  0  0  0  0  0  0
   10.3646   41.4665   35.8742 O   0  0  0  0  0  1  0  0  0  0  0  0
    9.9524   45.1147   33.2542 C   0  0  2  0  0  0  0  0  0  0  0  0
   11.0719   46.0330   33.4726 N   0  0  0  0  0  0  0  0  0  0  0  0
    8.6605   45.6687   33.8903 C   0  0  0  0  0  0  0  0  0  0  0  0
    8.8354   45.9892   35.3454 C   0  0  0  0  0  0  0  0  0  0  0  0
    8.8720   44.9500   36.2821 O   0  0  0  0  0  0  0  0  0  0  0  0
    8.9799   47.1887   35.7077 O   0  0  0  0  0  0  0  0  0  0  0  0
    9.1757   45.1509   37.6606 C   0  0  0  0  0  0  0  0  0  0  0  0
   10.6301   45.4985   37.8293 C   0  0  0  0  0  0  0  0  0  0  0  0
   11.0206   46.8080   38.1562 C   0  0  0  0  0  0  0  0  0  0  0  0
   11.6141   44.5206   37.6134 C   0  0  0  0  0  0  0  0  0  0  0  0
   12.3767   47.1296   38.2720 C   0  0  0  0  0  0  0  0  0  0  0  0
   12.9689   44.8461   37.7290 C   0  0  0  0  0  0  0  0  0  0  0  0
   13.3501   46.1496   38.0585 C   0  0  0  0  0  0  0  0  0  0  0  0
    8.8080   40.1912   34.2064 O   0  0  0  0  0  0  0  0  0  0  0  0
   11.2385   40.7904   33.3683 O   0  0  0  0  0  0  0  0  0  0  0  0
   10.9190   40.6889   31.9947 C   0  0  0  0  0  0  0  0  0  0  0  0
   11.5181   39.3801   31.4397 C   0  0  0  0  0  0  0  0  0  0  0  0
   12.7485   39.0876   32.0750 O   0  0  0  0  0  0  0  0  0  0  0  0
   10.6054   38.1876   31.6656 C   0  0  0  0  0  0  0  0  0  0  0  0
   12.9361   37.6816   32.0288 C   0  0  0  0  0  0  0  0  0  0  0  0
    9.6423   38.0739   30.6445 O   0  0  0  0  0  0  0  0  0  0  0  0
   11.5765   37.0159   31.7047 C   0  0  0  0  0  0  0  0  0  0  0  0
   13.4908   37.2183   33.3237 N   0  0  0  0  0  0  0  0  0  0  0  0
   11.6102   36.3399   30.4681 O   0  0  0  0  0  0  0  0  0  0  0  0
   14.4762   36.3274   33.5728 C   0  0  0  0  0  0  0  0  0  0  0  0
   13.1181   37.6318   34.5689 C   0  0  0  0  0  0  0  0  0  0  0  0
   15.2064   35.6141   32.6739 N   0  0  0  0  0  0  0  0  0  0  0  0
   14.6733   36.2276   34.9182 C   0  0  0  0  0  0  0  0  0  0  0  0
   13.8225   37.0457   35.5783 N   0  0  0  0  0  0  0  0  0  0  0  0
   16.1636   34.7595   33.1546 C   0  0  0  0  0  0  0  0  0  0  0  0
   15.6515   35.3493   35.4131 C   0  0  0  0  0  0  0  0  0  0  0  0
   16.3791   34.6310   34.5041 N   0  0  0  0  0  0  0  0  0  0  0  0
   15.9002   35.1934   36.8089 N   0  0  0  0  0  0  0  0  0  0  0  0
    9.7804   45.0005   32.1602 H   0  0  0  0  0  0  0  0  0  0  0  0
   10.8087   46.9710   33.0913 H   0  0  0  0  0  0  0  0  0  0  0  0
   11.8813   45.7114   32.8920 H   0  0  0  0  0  0  0  0  0  0  0  0
    8.3525   46.5877   33.3450 H   0  0  0  0  0  0  0  0  0  0  0  0
    7.8333   44.9350   33.7764 H   0  0  0  0  0  0  0  0  0  0  0  0
    8.9615   44.2109   38.2118 H   0  0  0  0  0  0  0  0  0  0  0  0
    8.5154   45.9392   38.0843 H   0  0  0  0  0  0  0  0  0  0  0  0
   10.2781   47.5797   38.3165 H   0  0  0  0  0  0  0  0  0  0  0  0
   11.3316   43.5090   37.3538 H   0  0  0  0  0  0  0  0  0  0  0  0
   12.6731   48.1397   38.5240 H   0  0  0  0  0  0  0  0  0  0  0  0
   13.7231   44.0883   37.5609 H   0  0  0  0  0  0  0  0  0  0  0  0
   14.3992   46.4007   38.1467 H   0  0  0  0  0  0  0  0  0  0  0  0
   11.3994   41.5437   31.4724 H   0  0  0  0  0  0  0  0  0  0  0  0
    9.8310   40.7376   31.7550 H   0  0  0  0  0  0  0  0  0  0  0  0
   11.7003   39.5046   30.3473 H   0  0  0  0  0  0  0  0  0  0  0  0
   10.1104   38.2621   32.6636 H   0  0  0  0  0  0  0  0  0  0  0  0
   13.6696   37.4586   31.2222 H   0  0  0  0  0  0  0  0  0  0  0  0
    8.9001   38.6883   30.8813 H   0  0  0  0  0  0  0  0  0  0  0  0
   11.2689   36.3071   32.5093 H   0  0  0  0  0  0  0  0  0  0  0  0
   12.1428   35.5152   30.6155 H   0  0  0  0  0  0  0  0  0  0  0  0
   12.3358   38.3593   34.7445 H   0  0  0  0  0  0  0  0  0  0  0  0
   16.7569   34.1789   32.4619 H   0  0  0  0  0  0  0  0  0  0  0  0
   15.3529   35.7358   37.5137 H   0  0  0  0  0  0  0  0  0  0  0  0
   16.6361   34.5316   37.1415 H   0  0  0  0  0  0  0  0  0  0  0  0
  1  2  2  0
  1  3  1  0
  3  4  1  0
  4  5  1  0
  6  1  1  0
  7  6  1  0
  6  8  1  0
  8  9  1  0
  9 10  1  0
  9 11  2  0
 10 12  1  0
 12 13  1  0
 13 14  2  0
 15 13  1  0
 14 16  1  0
 17 15  2  0
 16 18  2  0
 18 17  1  0
  4 19  2  0
  4 20  1  0
 21 20  1  0
 21 22  1  0
 22 23  1  0
 22 24  1  0
 23 25  1  0
 24 26  1  0
 24 27  1  0
 27 25  1  0
 25 28  1  0
 27 29  1  0
 30 28  1  0
 31 28  1  0
 32 30  2  0
 30 33  1  0
 34 31  2  0
 35 32  1  0
 33 36  2  0
 33 34  1  0
 37 35  2  0
 37 36  1  0
 36 38  1  0
  6 39  1  6
  7 40  1  0
  7 41  1  0
  8 42  1  0
  8 43  1  0
 12 44  1  0
 12 45  1  0
 14 46  1  0
 15 47  1  0
 16 48  1  0
 17 49  1  0
 18 50  1  0
 21 51  1  0
 21 52  1  0
 22 53  1  0
 24 54  1  0
 25 55  1  0
 26 56  1  0
 27 57  1  0
 29 58  1  0
 31 59  1  0
 35 60  1  0
 38 61  1  0
 38 62  1  0
M  CHG  1   5  -1
M  END
>  <EmbedRMS>  (150) 
0.08959776320000555

$$$$

     RDKit          3D

 62 65  0  0  0  0  0  0  0  0999 V2000
   10.2815   43.7731   33.8031 C   0  0  0  0  0  0  0  0  0  0  0  0
   11.4023   43.5893   34.3638 O   0  0  0  0  0  0  0  0  0  0  0  0
    9.3651   42.7296   33.6979 O   0  0  0  0  0  0  0  0  0  0  0  0
    9.8873   41.2341   34.2839 P   0  0  0  0  0  5  0  0  0  0  0  0
   10.3696   41.4724   35.8733 O   0  0  0  0  0  1  0  0  0  0  0  0
    9.9622   45.1121   33.2283 C   0  0  2  0  0  0  0  0  0  0  0  0
   11.0700   46.0315   33.4963 N   0  0  0  0  0  0  0  0  0  0  0  0
    8.6526   45.6690   33.8297 C   0  0  0  0  0  0  0  0  0  0  0  0
    7.4500   45.1278   33.1180 C   0  0  0  0  0  0  0  0  0  0  0  0
    6.7004   44.0971   33.6966 O   0  0  0  0  0  0  0  0  0  0  0  0
    7.1307   45.6039   31.9946 O   0  0  0  0  0  0  0  0  0  0  0  0
    5.6023   43.4652   33.0401 C   0  0  0  0  0  0  0  0  0  0  0  0
    6.1003   42.4339   32.0640 C   0  0  0  0  0  0  0  0  0  0  0  0
    6.3356   42.7734   30.7211 C   0  0  0  0  0  0  0  0  0  0  0  0
    6.3804   41.1294   32.5014 C   0  0  0  0  0  0  0  0  0  0  0  0
    6.8416   41.8203   29.8315 C   0  0  0  0  0  0  0  0  0  0  0  0
    6.8815   40.1776   31.6078 C   0  0  0  0  0  0  0  0  0  0  0  0
    7.1147   40.5235   30.2744 C   0  0  0  0  0  0  0  0  0  0  0  0
    8.8154   40.1860   34.2154 O   0  0  0  0  0  0  0  0  0  0  0  0
   11.2381   40.7918   33.3656 O   0  0  0  0  0  0  0  0  0  0  0  0
   10.9137   40.6857   31.9931 C   0  0  0  0  0  0  0  0  0  0  0  0
   11.5156   39.3779   31.4393 C   0  0  0  0  0  0  0  0  0  0  0  0
   12.7464   39.0858   32.0738 O   0  0  0  0  0  0  0  0  0  0  0  0
   10.6035   38.1874   31.6666 C   0  0  0  0  0  0  0  0  0  0  0  0
   12.9337   37.6794   32.0282 C   0  0  0  0  0  0  0  0  0  0  0  0
    9.6382   38.0918   30.6473 O   0  0  0  0  0  0  0  0  0  0  0  0
   11.5751   37.0135   31.7060 C   0  0  0  0  0  0  0  0  0  0  0  0
   13.4906   37.2179   33.3233 N   0  0  0  0  0  0  0  0  0  0  0  0
   11.6226   36.3371   30.4690 O   0  0  0  0  0  0  0  0  0  0  0  0
   14.4763   36.3273   33.5726 C   0  0  0  0  0  0  0  0  0  0  0  0
   13.1180   37.6317   34.5685 C   0  0  0  0  0  0  0  0  0  0  0  0
   15.2064   35.6139   32.6738 N   0  0  0  0  0  0  0  0  0  0  0  0
   14.6734   36.2277   34.9181 C   0  0  0  0  0  0  0  0  0  0  0  0
   13.8226   37.0458   35.5781 N   0  0  0  0  0  0  0  0  0  0  0  0
   16.1636   34.7594   33.1546 C   0  0  0  0  0  0  0  0  0  0  0  0
   15.6516   35.3494   35.4130 C   0  0  0  0  0  0  0  0  0  0  0  0
   16.3791   34.6310   34.5041 N   0  0  0  0  0  0  0  0  0  0  0  0
   15.9002   35.1935   36.8089 N   0  0  0  0  0  0  0  0  0  0  0  0
    9.8540   45.0020   32.1245 H   0  0  0  0  0  0  0  0  0  0  0  0
   11.9150   45.6935   32.9788 H   0  0  0  0  0  0  0  0  0  0  0  0
   10.8435   46.9589   33.0683 H   0  0  0  0  0  0  0  0  0  0  0  0
    8.5881   45.4366   34.9156 H   0  0  0  0  0  0  0  0  0  0  0  0
    8.6276   46.7765   33.7349 H   0  0  0  0  0  0  0  0  0  0  0  0
    4.9682   42.9731   33.8080 H   0  0  0  0  0  0  0  0  0  0  0  0
    4.9633   44.2211   32.5326 H   0  0  0  0  0  0  0  0  0  0  0  0
    6.1257   43.7722   30.3610 H   0  0  0  0  0  0  0  0  0  0  0  0
    6.2124   40.8509   33.5343 H   0  0  0  0  0  0  0  0  0  0  0  0
    7.0222   42.0874   28.7983 H   0  0  0  0  0  0  0  0  0  0  0  0
    7.0966   39.1741   31.9513 H   0  0  0  0  0  0  0  0  0  0  0  0
    7.5072   39.7876   29.5849 H   0  0  0  0  0  0  0  0  0  0  0  0
    9.8241   40.7228   31.7576 H   0  0  0  0  0  0  0  0  0  0  0  0
   11.3857   41.5422   31.4660 H   0  0  0  0  0  0  0  0  0  0  0  0
   11.6974   39.5020   30.3467 H   0  0  0  0  0  0  0  0  0  0  0  0
   10.1070   38.2784   32.6618 H   0  0  0  0  0  0  0  0  0  0  0  0
   13.6662   37.4548   31.2211 H   0  0  0  0  0  0  0  0  0  0  0  0
    8.9729   37.4226   30.9548 H   0  0  0  0  0  0  0  0  0  0  0  0
   11.2848   36.3051   32.5182 H   0  0  0  0  0  0  0  0  0  0  0  0
   10.8666   35.6936   30.4656 H   0  0  0  0  0  0  0  0  0  0  0  0
   12.3353   38.3587   34.7440 H   0  0  0  0  0  0  0  0  0  0  0  0
   16.7570   34.1787   32.4619 H   0  0  0  0  0  0  0  0  0  0  0  0
   15.3529   35.7358   37.5137 H   0  0  0  0  0  0  0  0  0  0  0  0
   16.6360   34.5316   37.1414 H   0  0  0  0  0  0  0  0  0  0  0  0
  1  2  2  0
  1  3  1  0
  3  4  1  0
  4  5  1  0
  6  1  1  0
  7  6  1  0
  6  8  1  0
  8  9  1  0
  9 10  1  0
  9 11  2  0
 10 12  1  0
 12 13  1  0
 13 14  2  0
 15 13  1  0
 14 16  1  0
 17 15  2  0
 16 18  2  0
 18 17  1  0
  4 19  2  0
  4 20  1  0
 21 20  1  0
 21 22  1  0
 22 23  1  0
 22 24  1  0
 23 25  1  0
 24 26  1  0
 24 27  1  0
 27 25  1  0
 25 28  1  0
 27 29  1  0
 30 28  1  0
 31 28  1  0
 32 30  2  0
 30 33  1  0
 34 31  2  0
 35 32  1  0
 33 36  2  0
 33 34  1  0
 37 35  2  0
 37 36  1  0
 36 38  1  0
  6 39  1  6
  7 40  1  0
  7 41  1  0
  8 42  1  0
  8 43  1  0
 12 44  1  0
 12 45  1  0
 14 46  1  0
 15 47  1  0
 16 48  1  0
 17 49  1  0
 18 50  1  0
 21 51  1  0
 21 52  1  0
 22 53  1  0
 24 54  1  0
 25 55  1  0
 26 56  1  0
 27 57  1  0
 29 58  1  0
 31 59  1  0
 35 60  1  0
 38 61  1  0
 38 62  1  0
M  CHG  1   5  -1
M  END
>  <EmbedRMS>  (151) 
0.08820887764375648

$$$$

     RDKit          3D

 62 65  0  0  0  0  0  0  0  0999 V2000
   10.2800   43.7764   33.8102 C   0  0  0  0  0  0  0  0  0  0  0  0
   11.4062   43.5919   34.3593 O   0  0  0  0  0  0  0  0  0  0  0  0
    9.3680   42.7305   33.6996 O   0  0  0  0  0  0  0  0  0  0  0  0
    9.8864   41.2343   34.2845 P   0  0  0  0  0  5  0  0  0  0  0  0
   10.3665   41.4701   35.8749 O   0  0  0  0  0  1  0  0  0  0  0  0
    9.9511   45.1165   33.2477 C   0  0  2  0  0  0  0  0  0  0  0  0
   11.0762   46.0242   33.4794 N   0  0  0  0  0  0  0  0  0  0  0  0
    8.6566   45.6941   33.8665 C   0  0  0  0  0  0  0  0  0  0  0  0
    7.4165   45.0372   33.3153 C   0  0  0  0  0  0  0  0  0  0  0  0
    6.8622   45.3834   32.0739 O   0  0  0  0  0  0  0  0  0  0  0  0
    6.8704   44.1175   33.9798 O   0  0  0  0  0  0  0  0  0  0  0  0
    7.2523   46.5079   31.2847 C   0  0  0  0  0  0  0  0  0  0  0  0
    6.7383   47.7892   31.8850 C   0  0  0  0  0  0  0  0  0  0  0  0
    7.5984   48.8846   32.0730 C   0  0  0  0  0  0  0  0  0  0  0  0
    5.3808   47.9145   32.2248 C   0  0  0  0  0  0  0  0  0  0  0  0
    7.1110   50.0776   32.6157 C   0  0  0  0  0  0  0  0  0  0  0  0
    4.8975   49.1095   32.7667 C   0  0  0  0  0  0  0  0  0  0  0  0
    5.7623   50.1895   32.9640 C   0  0  0  0  0  0  0  0  0  0  0  0
    8.8088   40.1914   34.2087 O   0  0  0  0  0  0  0  0  0  0  0  0
   11.2378   40.7907   33.3686 O   0  0  0  0  0  0  0  0  0  0  0  0
   10.9157   40.6898   31.9958 C   0  0  0  0  0  0  0  0  0  0  0  0
   11.5270   39.3898   31.4373 C   0  0  0  0  0  0  0  0  0  0  0  0
   12.7508   39.0916   32.0837 O   0  0  0  0  0  0  0  0  0  0  0  0
   10.6122   38.1916   31.6452 C   0  0  0  0  0  0  0  0  0  0  0  0
   12.9429   37.6852   32.0295 C   0  0  0  0  0  0  0  0  0  0  0  0
    9.6069   38.0858   30.6603 O   0  0  0  0  0  0  0  0  0  0  0  0
   11.5845   37.0186   31.6879 C   0  0  0  0  0  0  0  0  0  0  0  0
   13.4899   37.2163   33.3250 N   0  0  0  0  0  0  0  0  0  0  0  0
   11.6201   36.3063   30.4693 O   0  0  0  0  0  0  0  0  0  0  0  0
   14.4759   36.3263   33.5738 C   0  0  0  0  0  0  0  0  0  0  0  0
   13.1175   37.6307   34.5699 C   0  0  0  0  0  0  0  0  0  0  0  0
   15.2065   35.6139   32.6746 N   0  0  0  0  0  0  0  0  0  0  0  0
   14.6731   36.2267   34.9190 C   0  0  0  0  0  0  0  0  0  0  0  0
   13.8224   37.0450   35.5792 N   0  0  0  0  0  0  0  0  0  0  0  0
   16.1640   34.7596   33.1551 C   0  0  0  0  0  0  0  0  0  0  0  0
   15.6517   35.3489   35.4136 C   0  0  0  0  0  0  0  0  0  0  0  0
   16.3795   34.6310   34.5046 N   0  0  0  0  0  0  0  0  0  0  0  0
   15.9006   35.1931   36.8094 N   0  0  0  0  0  0  0  0  0  0  0  0
    9.8234   44.9944   32.1501 H   0  0  0  0  0  0  0  0  0  0  0  0
   10.9134   46.9028   32.9351 H   0  0  0  0  0  0  0  0  0  0  0  0
   11.1114   46.2885   34.4920 H   0  0  0  0  0  0  0  0  0  0  0  0
    8.6822   45.5735   34.9724 H   0  0  0  0  0  0  0  0  0  0  0  0
    8.6023   46.7847   33.6785 H   0  0  0  0  0  0  0  0  0  0  0  0
    6.8089   46.3966   30.2732 H   0  0  0  0  0  0  0  0  0  0  0  0
    8.3547   46.5268   31.1562 H   0  0  0  0  0  0  0  0  0  0  0  0
    8.6455   48.8142   31.8055 H   0  0  0  0  0  0  0  0  0  0  0  0
    4.6991   47.0871   32.0716 H   0  0  0  0  0  0  0  0  0  0  0  0
    7.7789   50.9162   32.7646 H   0  0  0  0  0  0  0  0  0  0  0  0
    3.8519   49.1991   33.0317 H   0  0  0  0  0  0  0  0  0  0  0  0
    5.3866   51.1139   33.3832 H   0  0  0  0  0  0  0  0  0  0  0  0
    9.8254   40.7191   31.7590 H   0  0  0  0  0  0  0  0  0  0  0  0
   11.3823   41.5526   31.4740 H   0  0  0  0  0  0  0  0  0  0  0  0
   11.7318   39.5337   30.3519 H   0  0  0  0  0  0  0  0  0  0  0  0
   10.1215   38.2683   32.6412 H   0  0  0  0  0  0  0  0  0  0  0  0
   13.6882   37.4707   31.2319 H   0  0  0  0  0  0  0  0  0  0  0  0
   10.0256   38.1751   29.7656 H   0  0  0  0  0  0  0  0  0  0  0  0
   11.2795   36.3123   32.4915 H   0  0  0  0  0  0  0  0  0  0  0  0
   11.9871   36.9100   29.7714 H   0  0  0  0  0  0  0  0  0  0  0  0
   12.3365   38.3595   34.7453 H   0  0  0  0  0  0  0  0  0  0  0  0
   16.7576   34.1794   32.4622 H   0  0  0  0  0  0  0  0  0  0  0  0
   15.3532   35.7351   37.5143 H   0  0  0  0  0  0  0  0  0  0  0  0
   16.6368   34.5316   37.1418 H   0  0  0  0  0  0  0  0  0  0  0  0
  1  2  2  0
  1  3  1  0
  3  4  1  0
  4  5  1  0
  6  1  1  0
  7  6  1  0
  6  8  1  0
  8  9  1  0
  9 10  1  0
  9 11  2  0
 10 12  1  0
 12 13  1  0
 13 14  2  0
 15 13  1  0
 14 16  1  0
 17 15  2  0
 16 18  2  0
 18 17  1  0
  4 19  2  0
  4 20  1  0
 21 20  1  0
 21 22  1  0
 22 23  1  0
 22 24  1  0
 23 25  1  0
 24 26  1  0
 24 27  1  0
 27 25  1  0
 25 28  1  0
 27 29  1  0
 30 28  1  0
 31 28  1  0
 32 30  2  0
 30 33  1  0
 34 31  2  0
 35 32  1  0
 33 36  2  0
 33 34  1  0
 37 35  2  0
 37 36  1  0
 36 38  1  0
  6 39  1  6
  7 40  1  0
  7 41  1  0
  8 42  1  0
  8 43  1  0
 12 44  1  0
 12 45  1  0
 14 46  1  0
 15 47  1  0
 16 48  1  0
 17 49  1  0
 18 50  1  0
 21 51  1  0
 21 52  1  0
 22 53  1  0
 24 54  1  0
 25 55  1  0
 26 56  1  0
 27 57  1  0
 29 58  1  0
 31 59  1  0
 35 60  1  0
 38 61  1  0
 38 62  1  0
M  CHG  1   5  -1
M  END
>  <EmbedRMS>  (152) 
0.0869094123699655

$$$$

     RDKit          3D

 62 65  0  0  0  0  0  0  0  0999 V2000
   10.2802   43.7757   33.8074 C   0  0  0  0  0  0  0  0  0  0  0  0
   11.4058   43.5915   34.3579 O   0  0  0  0  0  0  0  0  0  0  0  0
    9.3679   42.7297   33.6982 O   0  0  0  0  0  0  0  0  0  0  0  0
    9.8869   41.2341   34.2846 P   0  0  0  0  0  5  0  0  0  0  0  0
   10.3659   41.4709   35.8751 O   0  0  0  0  0  1  0  0  0  0  0  0
    9.9532   45.1166   33.2432 C   0  0  2  0  0  0  0  0  0  0  0  0
   11.0750   46.0254   33.4863 N   0  0  0  0  0  0  0  0  0  0  0  0
    8.6518   45.6890   33.8498 C   0  0  0  0  0  0  0  0  0  0  0  0
    7.4322   45.0381   33.2718 C   0  0  0  0  0  0  0  0  0  0  0  0
    6.8343   43.9697   33.9453 O   0  0  0  0  0  0  0  0  0  0  0  0
    6.9739   45.4390   32.1670 O   0  0  0  0  0  0  0  0  0  0  0  0
    5.6838   43.2955   33.4482 C   0  0  0  0  0  0  0  0  0  0  0  0
    5.3704   42.1300   34.3396 C   0  0  0  0  0  0  0  0  0  0  0  0
    5.7027   40.8223   33.9483 C   0  0  0  0  0  0  0  0  0  0  0  0
    4.7896   42.3457   35.5997 C   0  0  0  0  0  0  0  0  0  0  0  0
    5.4419   39.7450   34.8009 C   0  0  0  0  0  0  0  0  0  0  0  0
    4.5297   41.2655   36.4492 C   0  0  0  0  0  0  0  0  0  0  0  0
    4.8547   39.9662   36.0498 C   0  0  0  0  0  0  0  0  0  0  0  0
    8.8122   40.1889   34.2090 O   0  0  0  0  0  0  0  0  0  0  0  0
   11.2393   40.7914   33.3695 O   0  0  0  0  0  0  0  0  0  0  0  0
   10.9186   40.6905   31.9963 C   0  0  0  0  0  0  0  0  0  0  0  0
   11.5172   39.3824   31.4413 C   0  0  0  0  0  0  0  0  0  0  0  0
   12.7493   39.0893   32.0755 O   0  0  0  0  0  0  0  0  0  0  0  0
   10.6033   38.1900   31.6663 C   0  0  0  0  0  0  0  0  0  0  0  0
   12.9399   37.6834   32.0276 C   0  0  0  0  0  0  0  0  0  0  0  0
    9.6371   38.0788   30.6479 O   0  0  0  0  0  0  0  0  0  0  0  0
   11.5801   37.0204   31.6938 C   0  0  0  0  0  0  0  0  0  0  0  0
   13.4901   37.2177   33.3237 N   0  0  0  0  0  0  0  0  0  0  0  0
   11.6115   36.3194   30.4680 O   0  0  0  0  0  0  0  0  0  0  0  0
   14.4758   36.3272   33.5731 C   0  0  0  0  0  0  0  0  0  0  0  0
   13.1175   37.6317   34.5688 C   0  0  0  0  0  0  0  0  0  0  0  0
   15.2063   35.6142   32.6742 N   0  0  0  0  0  0  0  0  0  0  0  0
   14.6729   36.2274   34.9184 C   0  0  0  0  0  0  0  0  0  0  0  0
   13.8221   37.0458   35.5783 N   0  0  0  0  0  0  0  0  0  0  0  0
   16.1637   34.7597   33.1549 C   0  0  0  0  0  0  0  0  0  0  0  0
   15.6513   35.3493   35.4132 C   0  0  0  0  0  0  0  0  0  0  0  0
   16.3791   34.6312   34.5043 N   0  0  0  0  0  0  0  0  0  0  0  0
   15.9001   35.1935   36.8091 N   0  0  0  0  0  0  0  0  0  0  0  0
    9.8310   45.0032   32.1426 H   0  0  0  0  0  0  0  0  0  0  0  0
   10.9170   46.9049   32.9422 H   0  0  0  0  0  0  0  0  0  0  0  0
   11.1006   46.2878   34.4996 H   0  0  0  0  0  0  0  0  0  0  0  0
    8.5909   46.7796   33.6415 H   0  0  0  0  0  0  0  0  0  0  0  0
    8.6538   45.5650   34.9551 H   0  0  0  0  0  0  0  0  0  0  0  0
    5.8716   42.9499   32.4077 H   0  0  0  0  0  0  0  0  0  0  0  0
    4.8205   43.9957   33.4287 H   0  0  0  0  0  0  0  0  0  0  0  0
    6.1672   40.6365   32.9877 H   0  0  0  0  0  0  0  0  0  0  0  0
    4.5418   43.3490   35.9237 H   0  0  0  0  0  0  0  0  0  0  0  0
    5.6994   38.7392   34.4951 H   0  0  0  0  0  0  0  0  0  0  0  0
    4.0797   41.4363   37.4186 H   0  0  0  0  0  0  0  0  0  0  0  0
    4.6551   39.1314   36.7092 H   0  0  0  0  0  0  0  0  0  0  0  0
   11.3986   41.5454   31.4738 H   0  0  0  0  0  0  0  0  0  0  0  0
    9.8303   40.7392   31.7571 H   0  0  0  0  0  0  0  0  0  0  0  0
   11.6985   39.5091   30.3490 H   0  0  0  0  0  0  0  0  0  0  0  0
   10.1130   38.2590   32.6669 H   0  0  0  0  0  0  0  0  0  0  0  0
   13.6798   37.4627   31.2265 H   0  0  0  0  0  0  0  0  0  0  0  0
    8.8936   38.6892   30.8913 H   0  0  0  0  0  0  0  0  0  0  0  0
   11.2829   36.3060   32.4930 H   0  0  0  0  0  0  0  0  0  0  0  0
   11.8853   36.9592   29.7593 H   0  0  0  0  0  0  0  0  0  0  0  0
   12.3359   38.3599   34.7442 H   0  0  0  0  0  0  0  0  0  0  0  0
   16.7572   34.1793   32.4621 H   0  0  0  0  0  0  0  0  0  0  0  0
   16.6362   34.5318   37.1415 H   0  0  0  0  0  0  0  0  0  0  0  0
   15.3528   35.7357   37.5140 H   0  0  0  0  0  0  0  0  0  0  0  0
  1  2  2  0
  1  3  1  0
  3  4  1  0
  4  5  1  0
  6  1  1  0
  7  6  1  0
  6  8  1  0
  8  9  1  0
  9 10  1  0
  9 11  2  0
 10 12  1  0
 12 13  1  0
 13 14  2  0
 15 13  1  0
 14 16  1  0
 17 15  2  0
 16 18  2  0
 18 17  1  0
  4 19  2  0
  4 20  1  0
 21 20  1  0
 21 22  1  0
 22 23  1  0
 22 24  1  0
 23 25  1  0
 24 26  1  0
 24 27  1  0
 27 25  1  0
 25 28  1  0
 27 29  1  0
 30 28  1  0
 31 28  1  0
 32 30  2  0
 30 33  1  0
 34 31  2  0
 35 32  1  0
 33 36  2  0
 33 34  1  0
 37 35  2  0
 37 36  1  0
 36 38  1  0
  6 39  1  6
  7 40  1  0
  7 41  1  0
  8 42  1  0
  8 43  1  0
 12 44  1  0
 12 45  1  0
 14 46  1  0
 15 47  1  0
 16 48  1  0
 17 49  1  0
 18 50  1  0
 21 51  1  0
 21 52  1  0
 22 53  1  0
 24 54  1  0
 25 55  1  0
 26 56  1  0
 27 57  1  0
 29 58  1  0
 31 59  1  0
 35 60  1  0
 38 61  1  0
 38 62  1  0
M  CHG  1   5  -1
M  END
>  <EmbedRMS>  (153) 
0.08799083366630597

$$$$

     RDKit          3D

 62 65  0  0  0  0  0  0  0  0999 V2000
   10.2845   43.7741   33.8068 C   0  0  0  0  0  0  0  0  0  0  0  0
   11.4068   43.5903   34.3638 O   0  0  0  0  0  0  0  0  0  0  0  0
    9.3683   42.7308   33.6985 O   0  0  0  0  0  0  0  0  0  0  0  0
    9.8864   41.2338   34.2831 P   0  0  0  0  0  5  0  0  0  0  0  0
   10.3659   41.4695   35.8740 O   0  0  0  0  0  1  0  0  0  0  0  0
    9.9494   45.1162   33.2546 C   0  0  2  0  0  0  0  0  0  0  0  0
   11.0754   46.0282   33.4733 N   0  0  0  0  0  0  0  0  0  0  0  0
    8.6772   45.6526   33.9409 C   0  0  0  0  0  0  0  0  0  0  0  0
    8.1877   46.9085   33.2893 C   0  0  0  0  0  0  0  0  0  0  0  0
    8.4663   48.1451   33.8819 O   0  0  0  0  0  0  0  0  0  0  0  0
    7.5589   46.8427   32.1978 O   0  0  0  0  0  0  0  0  0  0  0  0
    8.1699   49.3936   33.2608 C   0  0  0  0  0  0  0  0  0  0  0  0
    9.1126   49.6404   32.1148 C   0  0  0  0  0  0  0  0  0  0  0  0
    8.6577   49.5820   30.7869 C   0  0  0  0  0  0  0  0  0  0  0  0
   10.4712   49.8905   32.3674 C   0  0  0  0  0  0  0  0  0  0  0  0
    9.5497   49.7812   29.7284 C   0  0  0  0  0  0  0  0  0  0  0  0
   11.3601   50.0882   31.3062 C   0  0  0  0  0  0  0  0  0  0  0  0
   10.8996   50.0345   29.9877 C   0  0  0  0  0  0  0  0  0  0  0  0
    8.8088   40.1911   34.2072 O   0  0  0  0  0  0  0  0  0  0  0  0
   11.2391   40.7899   33.3683 O   0  0  0  0  0  0  0  0  0  0  0  0
   10.9199   40.6894   31.9945 C   0  0  0  0  0  0  0  0  0  0  0  0
   11.5173   39.3800   31.4395 C   0  0  0  0  0  0  0  0  0  0  0  0
   12.7480   39.0860   32.0731 O   0  0  0  0  0  0  0  0  0  0  0  0
   10.6032   38.1891   31.6666 C   0  0  0  0  0  0  0  0  0  0  0  0
   12.9336   37.6795   32.0279 C   0  0  0  0  0  0  0  0  0  0  0  0
    9.6397   38.0777   30.6456 O   0  0  0  0  0  0  0  0  0  0  0  0
   11.5739   37.0153   31.7057 C   0  0  0  0  0  0  0  0  0  0  0  0
   13.4903   37.2177   33.3231 N   0  0  0  0  0  0  0  0  0  0  0  0
   11.6210   36.3375   30.4695 O   0  0  0  0  0  0  0  0  0  0  0  0
   14.4761   36.3273   33.5725 C   0  0  0  0  0  0  0  0  0  0  0  0
   13.1179   37.6316   34.5684 C   0  0  0  0  0  0  0  0  0  0  0  0
   15.2063   35.6138   32.6737 N   0  0  0  0  0  0  0  0  0  0  0  0
   14.6734   36.2277   34.9180 C   0  0  0  0  0  0  0  0  0  0  0  0
   13.8225   37.0459   35.5779 N   0  0  0  0  0  0  0  0  0  0  0  0
   16.1636   34.7594   33.1546 C   0  0  0  0  0  0  0  0  0  0  0  0
   15.6515   35.3494   35.4129 C   0  0  0  0  0  0  0  0  0  0  0  0
   16.3791   34.6311   34.5041 N   0  0  0  0  0  0  0  0  0  0  0  0
   15.9001   35.1935   36.8088 N   0  0  0  0  0  0  0  0  0  0  0  0
    9.7645   45.0046   32.1619 H   0  0  0  0  0  0  0  0  0  0  0  0
   11.8967   45.6756   32.9285 H   0  0  0  0  0  0  0  0  0  0  0  0
   10.8474   46.9536   33.0441 H   0  0  0  0  0  0  0  0  0  0  0  0
    7.8640   44.8958   33.8849 H   0  0  0  0  0  0  0  0  0  0  0  0
    8.8820   45.8491   35.0163 H   0  0  0  0  0  0  0  0  0  0  0  0
    8.2950   50.2022   34.0116 H   0  0  0  0  0  0  0  0  0  0  0  0
    7.1082   49.4123   32.9302 H   0  0  0  0  0  0  0  0  0  0  0  0
    7.6162   49.3790   30.5705 H   0  0  0  0  0  0  0  0  0  0  0  0
   10.8410   49.9261   33.3848 H   0  0  0  0  0  0  0  0  0  0  0  0
    9.1950   49.7360   28.7069 H   0  0  0  0  0  0  0  0  0  0  0  0
   12.4063   50.2801   31.5060 H   0  0  0  0  0  0  0  0  0  0  0  0
   11.5889   50.1866   29.1673 H   0  0  0  0  0  0  0  0  0  0  0  0
    9.8321   40.7398   31.7543 H   0  0  0  0  0  0  0  0  0  0  0  0
   11.4019   41.5436   31.4726 H   0  0  0  0  0  0  0  0  0  0  0  0
   11.6984   39.5040   30.3468 H   0  0  0  0  0  0  0  0  0  0  0  0
   10.1091   38.2633   32.6649 H   0  0  0  0  0  0  0  0  0  0  0  0
   13.6656   37.4538   31.2207 H   0  0  0  0  0  0  0  0  0  0  0  0
    8.8966   38.6901   30.8851 H   0  0  0  0  0  0  0  0  0  0  0  0
   11.2845   36.3060   32.5175 H   0  0  0  0  0  0  0  0  0  0  0  0
   10.8523   35.7094   30.4590 H   0  0  0  0  0  0  0  0  0  0  0  0
   12.3353   38.3587   34.7439 H   0  0  0  0  0  0  0  0  0  0  0  0
   16.7570   34.1788   32.4619 H   0  0  0  0  0  0  0  0  0  0  0  0
   15.3529   35.7359   37.5136 H   0  0  0  0  0  0  0  0  0  0  0  0
   16.6360   34.5317   37.1414 H   0  0  0  0  0  0  0  0  0  0  0  0
  1  2  2  0
  1  3  1  0
  3  4  1  0
  4  5  1  0
  6  1  1  0
  7  6  1  0
  6  8  1  0
  8  9  1  0
  9 10  1  0
  9 11  2  0
 10 12  1  0
 12 13  1  0
 13 14  2  0
 15 13  1  0
 14 16  1  0
 17 15  2  0
 16 18  2  0
 18 17  1  0
  4 19  2  0
  4 20  1  0
 21 20  1  0
 21 22  1  0
 22 23  1  0
 22 24  1  0
 23 25  1  0
 24 26  1  0
 24 27  1  0
 27 25  1  0
 25 28  1  0
 27 29  1  0
 30 28  1  0
 31 28  1  0
 32 30  2  0
 30 33  1  0
 34 31  2  0
 35 32  1  0
 33 36  2  0
 33 34  1  0
 37 35  2  0
 37 36  1  0
 36 38  1  0
  6 39  1  6
  7 40  1  0
  7 41  1  0
  8 42  1  0
  8 43  1  0
 12 44  1  0
 12 45  1  0
 14 46  1  0
 15 47  1  0
 16 48  1  0
 17 49  1  0
 18 50  1  0
 21 51  1  0
 21 52  1  0
 22 53  1  0
 24 54  1  0
 25 55  1  0
 26 56  1  0
 27 57  1  0
 29 58  1  0
 31 59  1  0
 35 60  1  0
 38 61  1  0
 38 62  1  0
M  CHG  1   5  -1
M  END
>  <EmbedRMS>  (154) 
0.08952974111476866

$$$$

     RDKit          3D

 62 65  0  0  0  0  0  0  0  0999 V2000
   10.2862   43.7710   33.8100 C   0  0  0  0  0  0  0  0  0  0  0  0
   11.4101   43.5817   34.3614 O   0  0  0  0  0  0  0  0  0  0  0  0
    9.3665   42.7311   33.7023 O   0  0  0  0  0  0  0  0  0  0  0  0
    9.8845   41.2331   34.2841 P   0  0  0  0  0  5  0  0  0  0  0  0
   10.3659   41.4675   35.8745 O   0  0  0  0  0  1  0  0  0  0  0  0
    9.9610   45.1121   33.2471 C   0  0  2  0  0  0  0  0  0  0  0  0
   11.0652   46.0484   33.4749 N   0  0  0  0  0  0  0  0  0  0  0  0
    8.6640   45.6566   33.8692 C   0  0  0  0  0  0  0  0  0  0  0  0
    8.2897   46.9687   33.2545 C   0  0  0  0  0  0  0  0  0  0  0  0
    7.7550   46.9919   31.9619 O   0  0  0  0  0  0  0  0  0  0  0  0
    8.4999   48.0405   33.8856 O   0  0  0  0  0  0  0  0  0  0  0  0
    7.5488   48.1945   31.2250 C   0  0  0  0  0  0  0  0  0  0  0  0
    8.8707   48.7895   30.8220 C   0  0  0  0  0  0  0  0  0  0  0  0
    9.7212   48.0832   29.9558 C   0  0  0  0  0  0  0  0  0  0  0  0
    9.2817   50.0339   31.3284 C   0  0  0  0  0  0  0  0  0  0  0  0
   10.9630   48.6169   29.5978 C   0  0  0  0  0  0  0  0  0  0  0  0
   10.5241   50.5646   30.9672 C   0  0  0  0  0  0  0  0  0  0  0  0
   11.3639   49.8570   30.1026 C   0  0  0  0  0  0  0  0  0  0  0  0
    8.8068   40.1905   34.2081 O   0  0  0  0  0  0  0  0  0  0  0  0
   11.2363   40.7907   33.3671 O   0  0  0  0  0  0  0  0  0  0  0  0
   10.9133   40.6860   31.9945 C   0  0  0  0  0  0  0  0  0  0  0  0
   11.5169   39.3797   31.4409 C   0  0  0  0  0  0  0  0  0  0  0  0
   12.7487   39.0887   32.0763 O   0  0  0  0  0  0  0  0  0  0  0  0
   10.6051   38.1876   31.6659 C   0  0  0  0  0  0  0  0  0  0  0  0
   12.9411   37.6829   32.0278 C   0  0  0  0  0  0  0  0  0  0  0  0
    9.6358   38.0930   30.6502 O   0  0  0  0  0  0  0  0  0  0  0  0
   11.5827   37.0179   31.6936 C   0  0  0  0  0  0  0  0  0  0  0  0
   13.4909   37.2177   33.3239 N   0  0  0  0  0  0  0  0  0  0  0  0
   11.6141   36.3180   30.4675 O   0  0  0  0  0  0  0  0  0  0  0  0
   14.4762   36.3270   33.5733 C   0  0  0  0  0  0  0  0  0  0  0  0
   13.1179   37.6316   34.5689 C   0  0  0  0  0  0  0  0  0  0  0  0
   15.2067   35.6140   32.6743 N   0  0  0  0  0  0  0  0  0  0  0  0
   14.6731   36.2273   34.9186 C   0  0  0  0  0  0  0  0  0  0  0  0
   13.8223   37.0456   35.5785 N   0  0  0  0  0  0  0  0  0  0  0  0
   16.1639   34.7595   33.1551 C   0  0  0  0  0  0  0  0  0  0  0  0
   15.6515   35.3491   35.4134 C   0  0  0  0  0  0  0  0  0  0  0  0
   16.3792   34.6310   34.5045 N   0  0  0  0  0  0  0  0  0  0  0  0
   15.9002   35.1933   36.8093 N   0  0  0  0  0  0  0  0  0  0  0  0
    9.8120   44.9947   32.1505 H   0  0  0  0  0  0  0  0  0  0  0  0
   11.9214   45.7042   32.9814 H   0  0  0  0  0  0  0  0  0  0  0  0
   11.2754   46.1181   34.4982 H   0  0  0  0  0  0  0  0  0  0  0  0
    8.7870   45.7749   34.9688 H   0  0  0  0  0  0  0  0  0  0  0  0
    7.8315   44.9411   33.6942 H   0  0  0  0  0  0  0  0  0  0  0  0
    6.9686   47.9553   30.3090 H   0  0  0  0  0  0  0  0  0  0  0  0
    6.9425   48.9073   31.8259 H   0  0  0  0  0  0  0  0  0  0  0  0
    9.4238   47.1183   29.5637 H   0  0  0  0  0  0  0  0  0  0  0  0
    8.6448   50.5905   32.0046 H   0  0  0  0  0  0  0  0  0  0  0  0
   11.6154   48.0682   28.9309 H   0  0  0  0  0  0  0  0  0  0  0  0
   10.8370   51.5235   31.3597 H   0  0  0  0  0  0  0  0  0  0  0  0
   12.3258   50.2686   29.8253 H   0  0  0  0  0  0  0  0  0  0  0  0
   11.3854   41.5434   31.4688 H   0  0  0  0  0  0  0  0  0  0  0  0
    9.8232   40.7211   31.7578 H   0  0  0  0  0  0  0  0  0  0  0  0
   11.6994   39.5065   30.3487 H   0  0  0  0  0  0  0  0  0  0  0  0
   10.1120   38.2722   32.6631 H   0  0  0  0  0  0  0  0  0  0  0  0
   13.6816   37.4633   31.2269 H   0  0  0  0  0  0  0  0  0  0  0  0
    9.0037   37.3827   30.9348 H   0  0  0  0  0  0  0  0  0  0  0  0
   11.2846   36.3041   32.4928 H   0  0  0  0  0  0  0  0  0  0  0  0
   11.8850   36.9590   29.7588 H   0  0  0  0  0  0  0  0  0  0  0  0
   12.3363   38.3599   34.7441 H   0  0  0  0  0  0  0  0  0  0  0  0
   16.7574   34.1790   32.4623 H   0  0  0  0  0  0  0  0  0  0  0  0
   15.3529   35.7355   37.5141 H   0  0  0  0  0  0  0  0  0  0  0  0
   16.6363   34.5317   37.1417 H   0  0  0  0  0  0  0  0  0  0  0  0
  1  2  2  0
  1  3  1  0
  3  4  1  0
  4  5  1  0
  6  1  1  0
  7  6  1  0
  6  8  1  0
  8  9  1  0
  9 10  1  0
  9 11  2  0
 10 12  1  0
 12 13  1  0
 13 14  2  0
 15 13  1  0
 14 16  1  0
 17 15  2  0
 16 18  2  0
 18 17  1  0
  4 19  2  0
  4 20  1  0
 21 20  1  0
 21 22  1  0
 22 23  1  0
 22 24  1  0
 23 25  1  0
 24 26  1  0
 24 27  1  0
 27 25  1  0
 25 28  1  0
 27 29  1  0
 30 28  1  0
 31 28  1  0
 32 30  2  0
 30 33  1  0
 34 31  2  0
 35 32  1  0
 33 36  2  0
 33 34  1  0
 37 35  2  0
 37 36  1  0
 36 38  1  0
  6 39  1  6
  7 40  1  0
  7 41  1  0
  8 42  1  0
  8 43  1  0
 12 44  1  0
 12 45  1  0
 14 46  1  0
 15 47  1  0
 16 48  1  0
 17 49  1  0
 18 50  1  0
 21 51  1  0
 21 52  1  0
 22 53  1  0
 24 54  1  0
 25 55  1  0
 26 56  1  0
 27 57  1  0
 29 58  1  0
 31 59  1  0
 35 60  1  0
 38 61  1  0
 38 62  1  0
M  CHG  1   5  -1
M  END
>  <EmbedRMS>  (155) 
0.08836423594453281

$$$$

     RDKit          3D

 62 65  0  0  0  0  0  0  0  0999 V2000
   10.2839   43.7718   33.8119 C   0  0  0  0  0  0  0  0  0  0  0  0
   11.4079   43.5827   34.3634 O   0  0  0  0  0  0  0  0  0  0  0  0
    9.3686   42.7288   33.6997 O   0  0  0  0  0  0  0  0  0  0  0  0
    9.8853   41.2321   34.2840 P   0  0  0  0  0  5  0  0  0  0  0  0
   10.3655   41.4680   35.8746 O   0  0  0  0  0  1  0  0  0  0  0  0
    9.9578   45.1175   33.2506 C   0  0  2  0  0  0  0  0  0  0  0  0
   11.0692   46.0452   33.4704 N   0  0  0  0  0  0  0  0  0  0  0  0
    8.6789   45.7018   33.8795 C   0  0  0  0  0  0  0  0  0  0  0  0
    7.4510   44.9511   33.4612 C   0  0  0  0  0  0  0  0  0  0  0  0
    7.0526   44.9761   32.1199 O   0  0  0  0  0  0  0  0  0  0  0  0
    6.7984   44.2916   34.3158 O   0  0  0  0  0  0  0  0  0  0  0  0
    5.9058   44.2840   31.6314 C   0  0  0  0  0  0  0  0  0  0  0  0
    4.6455   44.9593   32.0988 C   0  0  0  0  0  0  0  0  0  0  0  0
    3.7976   44.3315   33.0267 C   0  0  0  0  0  0  0  0  0  0  0  0
    4.3206   46.2410   31.6258 C   0  0  0  0  0  0  0  0  0  0  0  0
    2.6376   44.9761   33.4679 C   0  0  0  0  0  0  0  0  0  0  0  0
    3.1596   46.8820   32.0694 C   0  0  0  0  0  0  0  0  0  0  0  0
    2.3184   46.2499   32.9892 C   0  0  0  0  0  0  0  0  0  0  0  0
    8.8071   40.1901   34.2080 O   0  0  0  0  0  0  0  0  0  0  0  0
   11.2370   40.7887   33.3680 O   0  0  0  0  0  0  0  0  0  0  0  0
   10.9154   40.6880   31.9949 C   0  0  0  0  0  0  0  0  0  0  0  0
   11.5260   39.3870   31.4363 C   0  0  0  0  0  0  0  0  0  0  0  0
   12.7492   39.0892   32.0817 O   0  0  0  0  0  0  0  0  0  0  0  0
   10.6123   38.1893   31.6460 C   0  0  0  0  0  0  0  0  0  0  0  0
   12.9373   37.6826   32.0300 C   0  0  0  0  0  0  0  0  0  0  0  0
    9.6149   38.0838   30.6538 O   0  0  0  0  0  0  0  0  0  0  0  0
   11.5793   37.0136   31.7013 C   0  0  0  0  0  0  0  0  0  0  0  0
   13.4906   37.2170   33.3242 N   0  0  0  0  0  0  0  0  0  0  0  0
   11.6216   36.3252   30.4725 O   0  0  0  0  0  0  0  0  0  0  0  0
   14.4763   36.3266   33.5731 C   0  0  0  0  0  0  0  0  0  0  0  0
   13.1181   37.6308   34.5694 C   0  0  0  0  0  0  0  0  0  0  0  0
   15.2065   35.6137   32.6740 N   0  0  0  0  0  0  0  0  0  0  0  0
   14.6735   36.2270   34.9185 C   0  0  0  0  0  0  0  0  0  0  0  0
   13.8229   37.0451   35.5787 N   0  0  0  0  0  0  0  0  0  0  0  0
   16.1639   34.7593   33.1547 C   0  0  0  0  0  0  0  0  0  0  0  0
   15.6518   35.3489   35.4132 C   0  0  0  0  0  0  0  0  0  0  0  0
   16.3794   34.6308   34.5042 N   0  0  0  0  0  0  0  0  0  0  0  0
   15.9006   35.1931   36.8090 N   0  0  0  0  0  0  0  0  0  0  0  0
    9.8066   45.0111   32.1534 H   0  0  0  0  0  0  0  0  0  0  0  0
   11.9213   45.6932   32.9749 H   0  0  0  0  0  0  0  0  0  0  0  0
   11.2845   46.1166   34.4927 H   0  0  0  0  0  0  0  0  0  0  0  0
    8.7670   45.7045   34.9888 H   0  0  0  0  0  0  0  0  0  0  0  0
    8.5599   46.7570   33.5512 H   0  0  0  0  0  0  0  0  0  0  0  0
    5.9301   44.2967   30.5213 H   0  0  0  0  0  0  0  0  0  0  0  0
    5.9430   43.2187   31.9492 H   0  0  0  0  0  0  0  0  0  0  0  0
    4.0343   43.3467   33.4101 H   0  0  0  0  0  0  0  0  0  0  0  0
    4.9673   46.7423   30.9161 H   0  0  0  0  0  0  0  0  0  0  0  0
    1.9868   44.4887   34.1823 H   0  0  0  0  0  0  0  0  0  0  0  0
    2.9130   47.8695   31.7012 H   0  0  0  0  0  0  0  0  0  0  0  0
    1.4206   46.7475   33.3322 H   0  0  0  0  0  0  0  0  0  0  0  0
   11.3829   41.5503   31.4733 H   0  0  0  0  0  0  0  0  0  0  0  0
    9.8252   40.7182   31.7578 H   0  0  0  0  0  0  0  0  0  0  0  0
   11.7290   39.5287   30.3502 H   0  0  0  0  0  0  0  0  0  0  0  0
   10.1139   38.2719   32.6379 H   0  0  0  0  0  0  0  0  0  0  0  0
   13.6725   37.4634   31.2239 H   0  0  0  0  0  0  0  0  0  0  0  0
   10.0535   38.1085   29.7638 H   0  0  0  0  0  0  0  0  0  0  0  0
   11.2645   36.3134   32.5107 H   0  0  0  0  0  0  0  0  0  0  0  0
   12.1548   35.5031   30.6315 H   0  0  0  0  0  0  0  0  0  0  0  0
   12.3361   38.3586   34.7450 H   0  0  0  0  0  0  0  0  0  0  0  0
   16.7573   34.1788   32.4619 H   0  0  0  0  0  0  0  0  0  0  0  0
   15.3533   35.7353   37.5139 H   0  0  0  0  0  0  0  0  0  0  0  0
   16.6366   34.5314   37.1415 H   0  0  0  0  0  0  0  0  0  0  0  0
  1  2  2  0
  1  3  1  0
  3  4  1  0
  4  5  1  0
  6  1  1  0
  7  6  1  0
  6  8  1  0
  8  9  1  0
  9 10  1  0
  9 11  2  0
 10 12  1  0
 12 13  1  0
 13 14  2  0
 15 13  1  0
 14 16  1  0
 17 15  2  0
 16 18  2  0
 18 17  1  0
  4 19  2  0
  4 20  1  0
 21 20  1  0
 21 22  1  0
 22 23  1  0
 22 24  1  0
 23 25  1  0
 24 26  1  0
 24 27  1  0
 27 25  1  0
 25 28  1  0
 27 29  1  0
 30 28  1  0
 31 28  1  0
 32 30  2  0
 30 33  1  0
 34 31  2  0
 35 32  1  0
 33 36  2  0
 33 34  1  0
 37 35  2  0
 37 36  1  0
 36 38  1  0
  6 39  1  6
  7 40  1  0
  7 41  1  0
  8 42  1  0
  8 43  1  0
 12 44  1  0
 12 45  1  0
 14 46  1  0
 15 47  1  0
 16 48  1  0
 17 49  1  0
 18 50  1  0
 21 51  1  0
 21 52  1  0
 22 53  1  0
 24 54  1  0
 25 55  1  0
 26 56  1  0
 27 57  1  0
 29 58  1  0
 31 59  1  0
 35 60  1  0
 38 61  1  0
 38 62  1  0
M  CHG  1   5  -1
M  END
>  <EmbedRMS>  (156) 
0.08864979084215292

$$$$

     RDKit          3D

 62 65  0  0  0  0  0  0  0  0999 V2000
   10.2876   43.7688   33.8087 C   0  0  0  0  0  0  0  0  0  0  0  0
   11.4116   43.5793   34.3596 O   0  0  0  0  0  0  0  0  0  0  0  0
    9.3667   42.7303   33.7018 O   0  0  0  0  0  0  0  0  0  0  0  0
    9.8844   41.2325   34.2840 P   0  0  0  0  0  5  0  0  0  0  0  0
   10.3647   41.4678   35.8747 O   0  0  0  0  0  1  0  0  0  0  0  0
    9.9639   45.1115   33.2469 C   0  0  2  0  0  0  0  0  0  0  0  0
   11.0622   46.0541   33.4764 N   0  0  0  0  0  0  0  0  0  0  0  0
    8.6421   45.6680   33.8104 C   0  0  0  0  0  0  0  0  0  0  0  0
    8.6654   45.8207   35.3025 C   0  0  0  0  0  0  0  0  0  0  0  0
    9.1577   47.0012   35.8650 O   0  0  0  0  0  0  0  0  0  0  0  0
    8.2750   44.8719   36.0367 O   0  0  0  0  0  0  0  0  0  0  0  0
    9.2687   47.1945   37.2702 C   0  0  0  0  0  0  0  0  0  0  0  0
    9.8797   48.5386   37.5357 C   0  0  0  0  0  0  0  0  0  0  0  0
    9.0631   49.6624   37.7440 C   0  0  0  0  0  0  0  0  0  0  0  0
   11.2753   48.6959   37.5097 C   0  0  0  0  0  0  0  0  0  0  0  0
    9.6374   50.9204   37.9529 C   0  0  0  0  0  0  0  0  0  0  0  0
   11.8456   49.9556   37.7187 C   0  0  0  0  0  0  0  0  0  0  0  0
   11.0275   51.0665   37.9427 C   0  0  0  0  0  0  0  0  0  0  0  0
    8.8069   40.1899   34.2075 O   0  0  0  0  0  0  0  0  0  0  0  0
   11.2374   40.7895   33.3687 O   0  0  0  0  0  0  0  0  0  0  0  0
   10.9185   40.6886   31.9949 C   0  0  0  0  0  0  0  0  0  0  0  0
   11.5179   39.3800   31.4398 C   0  0  0  0  0  0  0  0  0  0  0  0
   12.7483   39.0876   32.0750 O   0  0  0  0  0  0  0  0  0  0  0  0
   10.6053   38.1874   31.6656 C   0  0  0  0  0  0  0  0  0  0  0  0
   12.9360   37.6816   32.0288 C   0  0  0  0  0  0  0  0  0  0  0  0
    9.6423   38.0737   30.6445 O   0  0  0  0  0  0  0  0  0  0  0  0
   11.5765   37.0158   31.7046 C   0  0  0  0  0  0  0  0  0  0  0  0
   13.4908   37.2183   33.3237 N   0  0  0  0  0  0  0  0  0  0  0  0
   11.6103   36.3399   30.4680 O   0  0  0  0  0  0  0  0  0  0  0  0
   14.4762   36.3274   33.5728 C   0  0  0  0  0  0  0  0  0  0  0  0
   13.1181   37.6318   34.5689 C   0  0  0  0  0  0  0  0  0  0  0  0
   15.2063   35.6141   32.6739 N   0  0  0  0  0  0  0  0  0  0  0  0
   14.6733   36.2275   34.9182 C   0  0  0  0  0  0  0  0  0  0  0  0
   13.8226   37.0457   35.5783 N   0  0  0  0  0  0  0  0  0  0  0  0
   16.1635   34.7595   33.1546 C   0  0  0  0  0  0  0  0  0  0  0  0
   15.6515   35.3492   35.4130 C   0  0  0  0  0  0  0  0  0  0  0  0
   16.3791   34.6310   34.5041 N   0  0  0  0  0  0  0  0  0  0  0  0
   15.9002   35.1934   36.8089 N   0  0  0  0  0  0  0  0  0  0  0  0
    9.8335   44.9915   32.1488 H   0  0  0  0  0  0  0  0  0  0  0  0
   11.9089   45.7284   32.9546 H   0  0  0  0  0  0  0  0  0  0  0  0
   11.3056   46.0954   34.4934 H   0  0  0  0  0  0  0  0  0  0  0  0
    7.8022   44.9986   33.5215 H   0  0  0  0  0  0  0  0  0  0  0  0
    8.4397   46.6596   33.3510 H   0  0  0  0  0  0  0  0  0  0  0  0
    9.9073   46.3966   37.7092 H   0  0  0  0  0  0  0  0  0  0  0  0
    8.2624   47.1261   37.7386 H   0  0  0  0  0  0  0  0  0  0  0  0
    7.9844   49.5650   37.7442 H   0  0  0  0  0  0  0  0  0  0  0  0
   11.9195   47.8446   37.3265 H   0  0  0  0  0  0  0  0  0  0  0  0
    9.0047   51.7828   38.1186 H   0  0  0  0  0  0  0  0  0  0  0  0
   12.9216   50.0712   37.7030 H   0  0  0  0  0  0  0  0  0  0  0  0
   11.4703   52.0410   38.1029 H   0  0  0  0  0  0  0  0  0  0  0  0
    9.8305   40.7373   31.7550 H   0  0  0  0  0  0  0  0  0  0  0  0
   11.3991   41.5436   31.4731 H   0  0  0  0  0  0  0  0  0  0  0  0
   11.7001   39.5046   30.3474 H   0  0  0  0  0  0  0  0  0  0  0  0
   10.1103   38.2617   32.6636 H   0  0  0  0  0  0  0  0  0  0  0  0
   13.6696   37.4587   31.2222 H   0  0  0  0  0  0  0  0  0  0  0  0
    8.8999   38.6880   30.8814 H   0  0  0  0  0  0  0  0  0  0  0  0
   11.2690   36.3068   32.5091 H   0  0  0  0  0  0  0  0  0  0  0  0
   12.1427   35.5151   30.6153 H   0  0  0  0  0  0  0  0  0  0  0  0
   12.3359   38.3593   34.7445 H   0  0  0  0  0  0  0  0  0  0  0  0
   16.7569   34.1789   32.4618 H   0  0  0  0  0  0  0  0  0  0  0  0
   16.6362   34.5315   37.1413 H   0  0  0  0  0  0  0  0  0  0  0  0
   15.3530   35.7357   37.5138 H   0  0  0  0  0  0  0  0  0  0  0  0
  1  2  2  0
  1  3  1  0
  3  4  1  0
  4  5  1  0
  6  1  1  0
  7  6  1  0
  6  8  1  0
  8  9  1  0
  9 10  1  0
  9 11  2  0
 10 12  1  0
 12 13  1  0
 13 14  2  0
 15 13  1  0
 14 16  1  0
 17 15  2  0
 16 18  2  0
 18 17  1  0
  4 19  2  0
  4 20  1  0
 21 20  1  0
 21 22  1  0
 22 23  1  0
 22 24  1  0
 23 25  1  0
 24 26  1  0
 24 27  1  0
 27 25  1  0
 25 28  1  0
 27 29  1  0
 30 28  1  0
 31 28  1  0
 32 30  2  0
 30 33  1  0
 34 31  2  0
 35 32  1  0
 33 36  2  0
 33 34  1  0
 37 35  2  0
 37 36  1  0
 36 38  1  0
  6 39  1  6
  7 40  1  0
  7 41  1  0
  8 42  1  0
  8 43  1  0
 12 44  1  0
 12 45  1  0
 14 46  1  0
 15 47  1  0
 16 48  1  0
 17 49  1  0
 18 50  1  0
 21 51  1  0
 21 52  1  0
 22 53  1  0
 24 54  1  0
 25 55  1  0
 26 56  1  0
 27 57  1  0
 29 58  1  0
 31 59  1  0
 35 60  1  0
 38 61  1  0
 38 62  1  0
M  CHG  1   5  -1
M  END
>  <EmbedRMS>  (157) 
0.08996142614861932

$$$$

     RDKit          3D

 62 65  0  0  0  0  0  0  0  0999 V2000
   10.2843   43.7743   33.8068 C   0  0  0  0  0  0  0  0  0  0  0  0
   11.4068   43.5903   34.3635 O   0  0  0  0  0  0  0  0  0  0  0  0
    9.3680   42.7310   33.6986 O   0  0  0  0  0  0  0  0  0  0  0  0
    9.8862   41.2340   34.2826 P   0  0  0  0  0  5  0  0  0  0  0  0
   10.3670   41.4693   35.8732 O   0  0  0  0  0  1  0  0  0  0  0  0
    9.9492   45.1165   33.2547 C   0  0  2  0  0  0  0  0  0  0  0  0
   11.0754   46.0280   33.4734 N   0  0  0  0  0  0  0  0  0  0  0  0
    8.6780   45.6535   33.9421 C   0  0  0  0  0  0  0  0  0  0  0  0
    8.1793   46.9037   33.2858 C   0  0  0  0  0  0  0  0  0  0  0  0
    8.4563   48.1453   33.8689 O   0  0  0  0  0  0  0  0  0  0  0  0
    7.5423   46.8283   32.1997 O   0  0  0  0  0  0  0  0  0  0  0  0
    8.0105   49.3840   33.3214 C   0  0  0  0  0  0  0  0  0  0  0  0
    6.5262   49.5383   33.5113 C   0  0  0  0  0  0  0  0  0  0  0  0
    5.9980   49.6982   34.8026 C   0  0  0  0  0  0  0  0  0  0  0  0
    5.6544   49.4973   32.4101 C   0  0  0  0  0  0  0  0  0  0  0  0
    4.6176   49.8238   34.9883 C   0  0  0  0  0  0  0  0  0  0  0  0
    4.2746   49.6230   32.6002 C   0  0  0  0  0  0  0  0  0  0  0  0
    3.7567   49.7869   33.8880 C   0  0  0  0  0  0  0  0  0  0  0  0
    8.8082   40.1915   34.2078 O   0  0  0  0  0  0  0  0  0  0  0  0
   11.2374   40.7904   33.3655 O   0  0  0  0  0  0  0  0  0  0  0  0
   10.9138   40.6842   31.9928 C   0  0  0  0  0  0  0  0  0  0  0  0
   11.5176   39.3772   31.4393 C   0  0  0  0  0  0  0  0  0  0  0  0
   12.7478   39.0868   32.0755 O   0  0  0  0  0  0  0  0  0  0  0  0
   10.6070   38.1851   31.6656 C   0  0  0  0  0  0  0  0  0  0  0  0
   12.9372   37.6810   32.0290 C   0  0  0  0  0  0  0  0  0  0  0  0
    9.6404   38.0882   30.6476 O   0  0  0  0  0  0  0  0  0  0  0  0
   11.5789   37.0133   31.7045 C   0  0  0  0  0  0  0  0  0  0  0  0
   13.4915   37.2181   33.3239 N   0  0  0  0  0  0  0  0  0  0  0  0
   11.6125   36.3388   30.4673 O   0  0  0  0  0  0  0  0  0  0  0  0
   14.4766   36.3272   33.5730 C   0  0  0  0  0  0  0  0  0  0  0  0
   13.1184   37.6317   34.5690 C   0  0  0  0  0  0  0  0  0  0  0  0
   15.2066   35.6139   32.6741 N   0  0  0  0  0  0  0  0  0  0  0  0
   14.6735   36.2273   34.9184 C   0  0  0  0  0  0  0  0  0  0  0  0
   13.8227   37.0455   35.5785 N   0  0  0  0  0  0  0  0  0  0  0  0
   16.1638   34.7593   33.1548 C   0  0  0  0  0  0  0  0  0  0  0  0
   15.6517   35.3491   35.4132 C   0  0  0  0  0  0  0  0  0  0  0  0
   16.3792   34.6308   34.5043 N   0  0  0  0  0  0  0  0  0  0  0  0
   15.9004   35.1932   36.8090 N   0  0  0  0  0  0  0  0  0  0  0  0
    9.7637   45.0049   32.1621 H   0  0  0  0  0  0  0  0  0  0  0  0
   10.8453   46.9558   33.0500 H   0  0  0  0  0  0  0  0  0  0  0  0
   11.8951   45.6777   32.9246 H   0  0  0  0  0  0  0  0  0  0  0  0
    8.8859   45.8568   35.0156 H   0  0  0  0  0  0  0  0  0  0  0  0
    7.8672   44.8937   33.8945 H   0  0  0  0  0  0  0  0  0  0  0  0
    8.2958   49.4486   32.2483 H   0  0  0  0  0  0  0  0  0  0  0  0
    8.5286   50.2121   33.8494 H   0  0  0  0  0  0  0  0  0  0  0  0
    6.6552   49.7236   35.6631 H   0  0  0  0  0  0  0  0  0  0  0  0
    6.0407   49.3660   31.4070 H   0  0  0  0  0  0  0  0  0  0  0  0
    4.2154   49.9479   35.9855 H   0  0  0  0  0  0  0  0  0  0  0  0
    3.6066   49.5918   31.7492 H   0  0  0  0  0  0  0  0  0  0  0  0
    2.6885   49.8834   34.0333 H   0  0  0  0  0  0  0  0  0  0  0  0
   11.3853   41.5412   31.4661 H   0  0  0  0  0  0  0  0  0  0  0  0
    9.8236   40.7188   31.7567 H   0  0  0  0  0  0  0  0  0  0  0  0
   11.7008   39.5015   30.3469 H   0  0  0  0  0  0  0  0  0  0  0  0
   10.1099   38.2752   32.6606 H   0  0  0  0  0  0  0  0  0  0  0  0
   13.6714   37.4590   31.2227 H   0  0  0  0  0  0  0  0  0  0  0  0
    9.0033   37.3835   30.9352 H   0  0  0  0  0  0  0  0  0  0  0  0
   11.2706   36.3048   32.5088 H   0  0  0  0  0  0  0  0  0  0  0  0
   12.1443   35.5135   30.6141 H   0  0  0  0  0  0  0  0  0  0  0  0
   12.3362   38.3592   34.7444 H   0  0  0  0  0  0  0  0  0  0  0  0
   16.7571   34.1787   32.4620 H   0  0  0  0  0  0  0  0  0  0  0  0
   16.6363   34.5314   37.1415 H   0  0  0  0  0  0  0  0  0  0  0  0
   15.3532   35.7355   37.5139 H   0  0  0  0  0  0  0  0  0  0  0  0
  1  2  2  0
  1  3  1  0
  3  4  1  0
  4  5  1  0
  6  1  1  0
  7  6  1  0
  6  8  1  0
  8  9  1  0
  9 10  1  0
  9 11  2  0
 10 12  1  0
 12 13  1  0
 13 14  2  0
 15 13  1  0
 14 16  1  0
 17 15  2  0
 16 18  2  0
 18 17  1  0
  4 19  2  0
  4 20  1  0
 21 20  1  0
 21 22  1  0
 22 23  1  0
 22 24  1  0
 23 25  1  0
 24 26  1  0
 24 27  1  0
 27 25  1  0
 25 28  1  0
 27 29  1  0
 30 28  1  0
 31 28  1  0
 32 30  2  0
 30 33  1  0
 34 31  2  0
 35 32  1  0
 33 36  2  0
 33 34  1  0
 37 35  2  0
 37 36  1  0
 36 38  1  0
  6 39  1  6
  7 40  1  0
  7 41  1  0
  8 42  1  0
  8 43  1  0
 12 44  1  0
 12 45  1  0
 14 46  1  0
 15 47  1  0
 16 48  1  0
 17 49  1  0
 18 50  1  0
 21 51  1  0
 21 52  1  0
 22 53  1  0
 24 54  1  0
 25 55  1  0
 26 56  1  0
 27 57  1  0
 29 58  1  0
 31 59  1  0
 35 60  1  0
 38 61  1  0
 38 62  1  0
M  CHG  1   5  -1
M  END
>  <EmbedRMS>  (158) 
0.08890998663790446

$$$$

     RDKit          3D

 62 65  0  0  0  0  0  0  0  0999 V2000
   10.2890   43.7680   33.8061 C   0  0  0  0  0  0  0  0  0  0  0  0
   11.4125   43.5788   34.3579 O   0  0  0  0  0  0  0  0  0  0  0  0
    9.3673   42.7300   33.7007 O   0  0  0  0  0  0  0  0  0  0  0  0
    9.8840   41.2329   34.2851 P   0  0  0  0  0  5  0  0  0  0  0  0
   10.3636   41.4692   35.8758 O   0  0  0  0  0  1  0  0  0  0  0  0
    9.9624   45.1125   33.2499 C   0  0  2  0  0  0  0  0  0  0  0  0
   11.0616   46.0541   33.4772 N   0  0  0  0  0  0  0  0  0  0  0  0
    8.6453   45.6677   33.8257 C   0  0  0  0  0  0  0  0  0  0  0  0
    8.6748   45.7965   35.3203 C   0  0  0  0  0  0  0  0  0  0  0  0
    8.4330   44.6674   36.1111 O   0  0  0  0  0  0  0  0  0  0  0  0
    8.9513   46.9078   35.8489 O   0  0  0  0  0  0  0  0  0  0  0  0
    8.4526   44.6894   37.5361 C   0  0  0  0  0  0  0  0  0  0  0  0
    7.2374   45.3997   38.0660 C   0  0  0  0  0  0  0  0  0  0  0  0
    5.9650   44.8287   37.9013 C   0  0  0  0  0  0  0  0  0  0  0  0
    7.3564   46.6466   38.7025 C   0  0  0  0  0  0  0  0  0  0  0  0
    4.8288   45.4922   38.3747 C   0  0  0  0  0  0  0  0  0  0  0  0
    6.2176   47.3069   39.1745 C   0  0  0  0  0  0  0  0  0  0  0  0
    4.9549   46.7300   39.0115 C   0  0  0  0  0  0  0  0  0  0  0  0
    8.8065   40.1903   34.2083 O   0  0  0  0  0  0  0  0  0  0  0  0
   11.2371   40.7894   33.3706 O   0  0  0  0  0  0  0  0  0  0  0  0
   10.9186   40.6903   31.9968 C   0  0  0  0  0  0  0  0  0  0  0  0
   11.5174   39.3824   31.4414 C   0  0  0  0  0  0  0  0  0  0  0  0
   12.7494   39.0893   32.0756 O   0  0  0  0  0  0  0  0  0  0  0  0
   10.6036   38.1899   31.6660 C   0  0  0  0  0  0  0  0  0  0  0  0
   12.9401   37.6834   32.0276 C   0  0  0  0  0  0  0  0  0  0  0  0
    9.6376   38.0785   30.6474 O   0  0  0  0  0  0  0  0  0  0  0  0
   11.5804   37.0204   31.6937 C   0  0  0  0  0  0  0  0  0  0  0  0
   13.4902   37.2177   33.3237 N   0  0  0  0  0  0  0  0  0  0  0  0
   11.6118   36.3193   30.4680 O   0  0  0  0  0  0  0  0  0  0  0  0
   14.4758   36.3271   33.5731 C   0  0  0  0  0  0  0  0  0  0  0  0
   13.1175   37.6317   34.5688 C   0  0  0  0  0  0  0  0  0  0  0  0
   15.2064   35.6142   32.6742 N   0  0  0  0  0  0  0  0  0  0  0  0
   14.6729   36.2274   34.9184 C   0  0  0  0  0  0  0  0  0  0  0  0
   13.8221   37.0457   35.5783 N   0  0  0  0  0  0  0  0  0  0  0  0
   16.1637   34.7597   33.1549 C   0  0  0  0  0  0  0  0  0  0  0  0
   15.6514   35.3493   35.4133 C   0  0  0  0  0  0  0  0  0  0  0  0
   16.3791   34.6312   34.5044 N   0  0  0  0  0  0  0  0  0  0  0  0
   15.9001   35.1935   36.8091 N   0  0  0  0  0  0  0  0  0  0  0  0
    9.8252   44.9969   32.1522 H   0  0  0  0  0  0  0  0  0  0  0  0
   11.3003   46.1007   34.4951 H   0  0  0  0  0  0  0  0  0  0  0  0
   11.9096   45.7247   32.9596 H   0  0  0  0  0  0  0  0  0  0  0  0
    8.4380   46.6614   33.3718 H   0  0  0  0  0  0  0  0  0  0  0  0
    7.8043   44.9986   33.5412 H   0  0  0  0  0  0  0  0  0  0  0  0
    8.4477   43.6424   37.9064 H   0  0  0  0  0  0  0  0  0  0  0  0
    9.3936   45.1609   37.8953 H   0  0  0  0  0  0  0  0  0  0  0  0
    5.8548   43.8722   37.4052 H   0  0  0  0  0  0  0  0  0  0  0  0
    8.3275   47.1081   38.8315 H   0  0  0  0  0  0  0  0  0  0  0  0
    3.8503   45.0477   38.2464 H   0  0  0  0  0  0  0  0  0  0  0  0
    6.3137   48.2669   39.6651 H   0  0  0  0  0  0  0  0  0  0  0  0
    4.0745   47.2428   39.3767 H   0  0  0  0  0  0  0  0  0  0  0  0
    9.8309   40.7398   31.7562 H   0  0  0  0  0  0  0  0  0  0  0  0
   11.4000   41.5455   31.4760 H   0  0  0  0  0  0  0  0  0  0  0  0
   11.6987   39.5095   30.3491 H   0  0  0  0  0  0  0  0  0  0  0  0
   10.1129   38.2587   32.6664 H   0  0  0  0  0  0  0  0  0  0  0  0
   13.6800   37.4628   31.2265 H   0  0  0  0  0  0  0  0  0  0  0  0
    8.8953   38.6908   30.8891 H   0  0  0  0  0  0  0  0  0  0  0  0
   11.2831   36.3059   32.4929 H   0  0  0  0  0  0  0  0  0  0  0  0
   11.8860   36.9590   29.7593 H   0  0  0  0  0  0  0  0  0  0  0  0
   12.3360   38.3600   34.7442 H   0  0  0  0  0  0  0  0  0  0  0  0
   16.7572   34.1793   32.4621 H   0  0  0  0  0  0  0  0  0  0  0  0
   16.6362   34.5318   37.1416 H   0  0  0  0  0  0  0  0  0  0  0  0
   15.3528   35.7356   37.5140 H   0  0  0  0  0  0  0  0  0  0  0  0
  1  2  2  0
  1  3  1  0
  3  4  1  0
  4  5  1  0
  6  1  1  0
  7  6  1  0
  6  8  1  0
  8  9  1  0
  9 10  1  0
  9 11  2  0
 10 12  1  0
 12 13  1  0
 13 14  2  0
 15 13  1  0
 14 16  1  0
 17 15  2  0
 16 18  2  0
 18 17  1  0
  4 19  2  0
  4 20  1  0
 21 20  1  0
 21 22  1  0
 22 23  1  0
 22 24  1  0
 23 25  1  0
 24 26  1  0
 24 27  1  0
 27 25  1  0
 25 28  1  0
 27 29  1  0
 30 28  1  0
 31 28  1  0
 32 30  2  0
 30 33  1  0
 34 31  2  0
 35 32  1  0
 33 36  2  0
 33 34  1  0
 37 35  2  0
 37 36  1  0
 36 38  1  0
  6 39  1  6
  7 40  1  0
  7 41  1  0
  8 42  1  0
  8 43  1  0
 12 44  1  0
 12 45  1  0
 14 46  1  0
 15 47  1  0
 16 48  1  0
 17 49  1  0
 18 50  1  0
 21 51  1  0
 21 52  1  0
 22 53  1  0
 24 54  1  0
 25 55  1  0
 26 56  1  0
 27 57  1  0
 29 58  1  0
 31 59  1  0
 35 60  1  0
 38 61  1  0
 38 62  1  0
M  CHG  1   5  -1
M  END
>  <EmbedRMS>  (159) 
0.0889813382276486

$$$$

     RDKit          3D

 62 65  0  0  0  0  0  0  0  0999 V2000
   10.2861   43.7710   33.8099 C   0  0  0  0  0  0  0  0  0  0  0  0
   11.4100   43.5818   34.3615 O   0  0  0  0  0  0  0  0  0  0  0  0
    9.3665   42.7311   33.7023 O   0  0  0  0  0  0  0  0  0  0  0  0
    9.8845   41.2331   34.2841 P   0  0  0  0  0  5  0  0  0  0  0  0
   10.3659   41.4676   35.8745 O   0  0  0  0  0  1  0  0  0  0  0  0
    9.9608   45.1122   33.2472 C   0  0  2  0  0  0  0  0  0  0  0  0
   11.0655   46.0482   33.4749 N   0  0  0  0  0  0  0  0  0  0  0  0
    8.6636   45.6564   33.8695 C   0  0  0  0  0  0  0  0  0  0  0  0
    8.2941   46.9742   33.2644 C   0  0  0  0  0  0  0  0  0  0  0  0
    8.7497   48.1547   33.8613 O   0  0  0  0  0  0  0  0  0  0  0  0
    7.6231   47.0076   32.1968 O   0  0  0  0  0  0  0  0  0  0  0  0
    8.6190   49.4372   33.2532 C   0  0  0  0  0  0  0  0  0  0  0  0
    9.5457   49.5482   32.0733 C   0  0  0  0  0  0  0  0  0  0  0  0
   10.9357   49.5006   32.2684 C   0  0  0  0  0  0  0  0  0  0  0  0
    9.0362   49.6647   30.7692 C   0  0  0  0  0  0  0  0  0  0  0  0
   11.8034   49.5745   31.1745 C   0  0  0  0  0  0  0  0  0  0  0  0
    9.9076   49.7394   29.6779 C   0  0  0  0  0  0  0  0  0  0  0  0
   11.2899   49.6946   29.8802 C   0  0  0  0  0  0  0  0  0  0  0  0
    8.8069   40.1905   34.2081 O   0  0  0  0  0  0  0  0  0  0  0  0
   11.2363   40.7907   33.3671 O   0  0  0  0  0  0  0  0  0  0  0  0
   10.9133   40.6860   31.9945 C   0  0  0  0  0  0  0  0  0  0  0  0
   11.5169   39.3797   31.4409 C   0  0  0  0  0  0  0  0  0  0  0  0
   12.7487   39.0887   32.0763 O   0  0  0  0  0  0  0  0  0  0  0  0
   10.6051   38.1876   31.6659 C   0  0  0  0  0  0  0  0  0  0  0  0
   12.9411   37.6829   32.0278 C   0  0  0  0  0  0  0  0  0  0  0  0
    9.6358   38.0930   30.6502 O   0  0  0  0  0  0  0  0  0  0  0  0
   11.5827   37.0179   31.6936 C   0  0  0  0  0  0  0  0  0  0  0  0
   13.4909   37.2177   33.3239 N   0  0  0  0  0  0  0  0  0  0  0  0
   11.6141   36.3180   30.4675 O   0  0  0  0  0  0  0  0  0  0  0  0
   14.4762   36.3270   33.5733 C   0  0  0  0  0  0  0  0  0  0  0  0
   13.1179   37.6316   34.5689 C   0  0  0  0  0  0  0  0  0  0  0  0
   15.2067   35.6140   32.6743 N   0  0  0  0  0  0  0  0  0  0  0  0
   14.6731   36.2273   34.9186 C   0  0  0  0  0  0  0  0  0  0  0  0
   13.8223   37.0456   35.5785 N   0  0  0  0  0  0  0  0  0  0  0  0
   16.1639   34.7595   33.1550 C   0  0  0  0  0  0  0  0  0  0  0  0
   15.6515   35.3491   35.4134 C   0  0  0  0  0  0  0  0  0  0  0  0
   16.3792   34.6310   34.5045 N   0  0  0  0  0  0  0  0  0  0  0  0
   15.9002   35.1933   36.8092 N   0  0  0  0  0  0  0  0  0  0  0  0
    9.8108   44.9954   32.1508 H   0  0  0  0  0  0  0  0  0  0  0  0
   11.9221   45.7038   32.9822 H   0  0  0  0  0  0  0  0  0  0  0  0
   11.2749   46.1197   34.4982 H   0  0  0  0  0  0  0  0  0  0  0  0
    7.8308   44.9387   33.7009 H   0  0  0  0  0  0  0  0  0  0  0  0
    8.7894   45.7795   34.9676 H   0  0  0  0  0  0  0  0  0  0  0  0
    7.5599   49.6134   32.9631 H   0  0  0  0  0  0  0  0  0  0  0  0
    8.8920   50.2136   33.9986 H   0  0  0  0  0  0  0  0  0  0  0  0
   11.3449   49.4006   33.2663 H   0  0  0  0  0  0  0  0  0  0  0  0
    7.9676   49.6933   30.5963 H   0  0  0  0  0  0  0  0  0  0  0  0
   12.8738   49.5362   31.3299 H   0  0  0  0  0  0  0  0  0  0  0  0
    9.5111   49.8292   28.6748 H   0  0  0  0  0  0  0  0  0  0  0  0
   11.9626   49.7509   29.0343 H   0  0  0  0  0  0  0  0  0  0  0  0
   11.3853   41.5434   31.4688 H   0  0  0  0  0  0  0  0  0  0  0  0
    9.8232   40.7210   31.7578 H   0  0  0  0  0  0  0  0  0  0  0  0
   11.6993   39.5065   30.3487 H   0  0  0  0  0  0  0  0  0  0  0  0
   10.1120   38.2722   32.6631 H   0  0  0  0  0  0  0  0  0  0  0  0
   13.6816   37.4633   31.2269 H   0  0  0  0  0  0  0  0  0  0  0  0
    9.0037   37.3827   30.9349 H   0  0  0  0  0  0  0  0  0  0  0  0
   11.2846   36.3040   32.4928 H   0  0  0  0  0  0  0  0  0  0  0  0
   11.8850   36.9590   29.7588 H   0  0  0  0  0  0  0  0  0  0  0  0
   12.3363   38.3599   34.7441 H   0  0  0  0  0  0  0  0  0  0  0  0
   16.7574   34.1790   32.4623 H   0  0  0  0  0  0  0  0  0  0  0  0
   15.3529   35.7355   37.5141 H   0  0  0  0  0  0  0  0  0  0  0  0
   16.6363   34.5316   37.1418 H   0  0  0  0  0  0  0  0  0  0  0  0
  1  2  2  0
  1  3  1  0
  3  4  1  0
  4  5  1  0
  6  1  1  0
  7  6  1  0
  6  8  1  0
  8  9  1  0
  9 10  1  0
  9 11  2  0
 10 12  1  0
 12 13  1  0
 13 14  2  0
 15 13  1  0
 14 16  1  0
 17 15  2  0
 16 18  2  0
 18 17  1  0
  4 19  2  0
  4 20  1  0
 21 20  1  0
 21 22  1  0
 22 23  1  0
 22 24  1  0
 23 25  1  0
 24 26  1  0
 24 27  1  0
 27 25  1  0
 25 28  1  0
 27 29  1  0
 30 28  1  0
 31 28  1  0
 32 30  2  0
 30 33  1  0
 34 31  2  0
 35 32  1  0
 33 36  2  0
 33 34  1  0
 37 35  2  0
 37 36  1  0
 36 38  1  0
  6 39  1  6
  7 40  1  0
  7 41  1  0
  8 42  1  0
  8 43  1  0
 12 44  1  0
 12 45  1  0
 14 46  1  0
 15 47  1  0
 16 48  1  0
 17 49  1  0
 18 50  1  0
 21 51  1  0
 21 52  1  0
 22 53  1  0
 24 54  1  0
 25 55  1  0
 26 56  1  0
 27 57  1  0
 29 58  1  0
 31 59  1  0
 35 60  1  0
 38 61  1  0
 38 62  1  0
M  CHG  1   5  -1
M  END
>  <EmbedRMS>  (160) 
0.08836040133625421

$$$$

     RDKit          3D

 62 65  0  0  0  0  0  0  0  0999 V2000
   10.2822   43.7752   33.8087 C   0  0  0  0  0  0  0  0  0  0  0  0
   11.4051   43.5917   34.3647 O   0  0  0  0  0  0  0  0  0  0  0  0
    9.3711   42.7285   33.6947 O   0  0  0  0  0  0  0  0  0  0  0  0
    9.8870   41.2332   34.2824 P   0  0  0  0  0  5  0  0  0  0  0  0
   10.3665   41.4703   35.8731 O   0  0  0  0  0  1  0  0  0  0  0  0
    9.9447   45.1224   33.2622 C   0  0  2  0  0  0  0  0  0  0  0  0
   11.0793   46.0244   33.4673 N   0  0  0  0  0  0  0  0  0  0  0  0
    8.6955   45.7025   33.9590 C   0  0  0  0  0  0  0  0  0  0  0  0
    7.4507   44.9446   33.6106 C   0  0  0  0  0  0  0  0  0  0  0  0
    6.9023   44.0571   34.5436 O   0  0  0  0  0  0  0  0  0  0  0  0
    6.9288   45.0879   32.4713 O   0  0  0  0  0  0  0  0  0  0  0  0
    5.7482   43.2617   34.2836 C   0  0  0  0  0  0  0  0  0  0  0  0
    4.5119   44.1185   34.2673 C   0  0  0  0  0  0  0  0  0  0  0  0
    3.8058   44.3354   33.0722 C   0  0  0  0  0  0  0  0  0  0  0  0
    4.0684   44.7309   35.4506 C   0  0  0  0  0  0  0  0  0  0  0  0
    2.6677   45.1482   33.0652 C   0  0  0  0  0  0  0  0  0  0  0  0
    2.9298   45.5427   35.4394 C   0  0  0  0  0  0  0  0  0  0  0  0
    2.2297   45.7507   34.2478 C   0  0  0  0  0  0  0  0  0  0  0  0
    8.8080   40.1918   34.2077 O   0  0  0  0  0  0  0  0  0  0  0  0
   11.2379   40.7887   33.3659 O   0  0  0  0  0  0  0  0  0  0  0  0
   10.9144   40.6839   31.9931 C   0  0  0  0  0  0  0  0  0  0  0  0
   11.5178   39.3771   31.4391 C   0  0  0  0  0  0  0  0  0  0  0  0
   12.7480   39.0866   32.0752 O   0  0  0  0  0  0  0  0  0  0  0  0
   10.6070   38.1851   31.6656 C   0  0  0  0  0  0  0  0  0  0  0  0
   12.9372   37.6808   32.0289 C   0  0  0  0  0  0  0  0  0  0  0  0
    9.6404   38.0882   30.6476 O   0  0  0  0  0  0  0  0  0  0  0  0
   11.5788   37.0133   31.7045 C   0  0  0  0  0  0  0  0  0  0  0  0
   13.4915   37.2181   33.3239 N   0  0  0  0  0  0  0  0  0  0  0  0
   11.6124   36.3387   30.4673 O   0  0  0  0  0  0  0  0  0  0  0  0
   14.4766   36.3271   33.5730 C   0  0  0  0  0  0  0  0  0  0  0  0
   13.1184   37.6317   34.5689 C   0  0  0  0  0  0  0  0  0  0  0  0
   15.2066   35.6139   32.6741 N   0  0  0  0  0  0  0  0  0  0  0  0
   14.6735   36.2274   34.9184 C   0  0  0  0  0  0  0  0  0  0  0  0
   13.8227   37.0456   35.5785 N   0  0  0  0  0  0  0  0  0  0  0  0
   16.1638   34.7592   33.1548 C   0  0  0  0  0  0  0  0  0  0  0  0
   15.6517   35.3491   35.4132 C   0  0  0  0  0  0  0  0  0  0  0  0
   16.3792   34.6308   34.5043 N   0  0  0  0  0  0  0  0  0  0  0  0
   15.9004   35.1932   36.8091 N   0  0  0  0  0  0  0  0  0  0  0  0
    9.7488   45.0260   32.1699 H   0  0  0  0  0  0  0  0  0  0  0  0
   10.8354   46.9617   33.0717 H   0  0  0  0  0  0  0  0  0  0  0  0
   11.8819   45.6828   32.8885 H   0  0  0  0  0  0  0  0  0  0  0  0
    8.5503   46.7599   33.6479 H   0  0  0  0  0  0  0  0  0  0  0  0
    8.8391   45.6983   35.0619 H   0  0  0  0  0  0  0  0  0  0  0  0
    5.8776   42.7085   33.3274 H   0  0  0  0  0  0  0  0  0  0  0  0
    5.6507   42.5046   35.0901 H   0  0  0  0  0  0  0  0  0  0  0  0
    4.1360   43.8790   32.1473 H   0  0  0  0  0  0  0  0  0  0  0  0
    4.6055   44.5802   36.3790 H   0  0  0  0  0  0  0  0  0  0  0  0
    2.1263   45.3122   32.1425 H   0  0  0  0  0  0  0  0  0  0  0  0
    2.5913   46.0118   36.3542 H   0  0  0  0  0  0  0  0  0  0  0  0
    1.3490   46.3799   34.2405 H   0  0  0  0  0  0  0  0  0  0  0  0
   11.3863   41.5411   31.4671 H   0  0  0  0  0  0  0  0  0  0  0  0
    9.8242   40.7189   31.7568 H   0  0  0  0  0  0  0  0  0  0  0  0
   11.7008   39.5016   30.3467 H   0  0  0  0  0  0  0  0  0  0  0  0
   10.1100   38.2753   32.6605 H   0  0  0  0  0  0  0  0  0  0  0  0
   13.6713   37.4586   31.2226 H   0  0  0  0  0  0  0  0  0  0  0  0
    9.0030   37.3839   30.9354 H   0  0  0  0  0  0  0  0  0  0  0  0
   11.2705   36.3048   32.5088 H   0  0  0  0  0  0  0  0  0  0  0  0
   12.1440   35.5134   30.6141 H   0  0  0  0  0  0  0  0  0  0  0  0
   12.3361   38.3591   34.7443 H   0  0  0  0  0  0  0  0  0  0  0  0
   16.7571   34.1786   32.4621 H   0  0  0  0  0  0  0  0  0  0  0  0
   15.3531   35.7355   37.5139 H   0  0  0  0  0  0  0  0  0  0  0  0
   16.6362   34.5314   37.1416 H   0  0  0  0  0  0  0  0  0  0  0  0
  1  2  2  0
  1  3  1  0
  3  4  1  0
  4  5  1  0
  6  1  1  0
  7  6  1  0
  6  8  1  0
  8  9  1  0
  9 10  1  0
  9 11  2  0
 10 12  1  0
 12 13  1  0
 13 14  2  0
 15 13  1  0
 14 16  1  0
 17 15  2  0
 16 18  2  0
 18 17  1  0
  4 19  2  0
  4 20  1  0
 21 20  1  0
 21 22  1  0
 22 23  1  0
 22 24  1  0
 23 25  1  0
 24 26  1  0
 24 27  1  0
 27 25  1  0
 25 28  1  0
 27 29  1  0
 30 28  1  0
 31 28  1  0
 32 30  2  0
 30 33  1  0
 34 31  2  0
 35 32  1  0
 33 36  2  0
 33 34  1  0
 37 35  2  0
 37 36  1  0
 36 38  1  0
  6 39  1  6
  7 40  1  0
  7 41  1  0
  8 42  1  0
  8 43  1  0
 12 44  1  0
 12 45  1  0
 14 46  1  0
 15 47  1  0
 16 48  1  0
 17 49  1  0
 18 50  1  0
 21 51  1  0
 21 52  1  0
 22 53  1  0
 24 54  1  0
 25 55  1  0
 26 56  1  0
 27 57  1  0
 29 58  1  0
 31 59  1  0
 35 60  1  0
 38 61  1  0
 38 62  1  0
M  CHG  1   5  -1
M  END
>  <EmbedRMS>  (161) 
0.08933415755417429

$$$$

     RDKit          3D

 62 65  0  0  0  0  0  0  0  0999 V2000
   10.2800   43.7745   33.8045 C   0  0  0  0  0  0  0  0  0  0  0  0
   11.4044   43.5901   34.3577 O   0  0  0  0  0  0  0  0  0  0  0  0
    9.3638   42.7307   33.7004 O   0  0  0  0  0  0  0  0  0  0  0  0
    9.8870   41.2347   34.2843 P   0  0  0  0  0  5  0  0  0  0  0  0
   10.3699   41.4722   35.8736 O   0  0  0  0  0  1  0  0  0  0  0  0
    9.9652   45.1091   33.2216 C   0  0  2  0  0  0  0  0  0  0  0  0
   11.0681   46.0292   33.5042 N   0  0  0  0  0  0  0  0  0  0  0  0
    8.6298   45.6682   33.7636 C   0  0  0  0  0  0  0  0  0  0  0  0
    7.4560   45.1055   33.0217 C   0  0  0  0  0  0  0  0  0  0  0  0
    6.6756   44.1021   33.6076 O   0  0  0  0  0  0  0  0  0  0  0  0
    7.1863   45.5409   31.8692 O   0  0  0  0  0  0  0  0  0  0  0  0
    5.5857   43.4688   32.9393 C   0  0  0  0  0  0  0  0  0  0  0  0
    6.0934   42.4202   31.9872 C   0  0  0  0  0  0  0  0  0  0  0  0
    6.3187   42.7290   30.6351 C   0  0  0  0  0  0  0  0  0  0  0  0
    6.3900   41.1304   32.4557 C   0  0  0  0  0  0  0  0  0  0  0  0
    6.8300   41.7592   29.7668 C   0  0  0  0  0  0  0  0  0  0  0  0
    6.8960   40.1618   31.5832 C   0  0  0  0  0  0  0  0  0  0  0  0
    7.1183   40.4767   30.2403 C   0  0  0  0  0  0  0  0  0  0  0  0
    8.8151   40.1866   34.2154 O   0  0  0  0  0  0  0  0  0  0  0  0
   11.2379   40.7927   33.3655 O   0  0  0  0  0  0  0  0  0  0  0  0
   10.9133   40.6859   31.9931 C   0  0  0  0  0  0  0  0  0  0  0  0
   11.5154   39.3779   31.4395 C   0  0  0  0  0  0  0  0  0  0  0  0
   12.7462   39.0859   32.0740 O   0  0  0  0  0  0  0  0  0  0  0  0
   10.6036   38.1873   31.6666 C   0  0  0  0  0  0  0  0  0  0  0  0
   12.9338   37.6795   32.0283 C   0  0  0  0  0  0  0  0  0  0  0  0
    9.6386   38.0915   30.6472 O   0  0  0  0  0  0  0  0  0  0  0  0
   11.5752   37.0135   31.7060 C   0  0  0  0  0  0  0  0  0  0  0  0
   13.4906   37.2180   33.3233 N   0  0  0  0  0  0  0  0  0  0  0  0
   11.6228   36.3371   30.4691 O   0  0  0  0  0  0  0  0  0  0  0  0
   14.4763   36.3274   33.5726 C   0  0  0  0  0  0  0  0  0  0  0  0
   13.1180   37.6317   34.5686 C   0  0  0  0  0  0  0  0  0  0  0  0
   15.2064   35.6139   32.6738 N   0  0  0  0  0  0  0  0  0  0  0  0
   14.6734   36.2277   34.9181 C   0  0  0  0  0  0  0  0  0  0  0  0
   13.8226   37.0458   35.5781 N   0  0  0  0  0  0  0  0  0  0  0  0
   16.1636   34.7594   33.1546 C   0  0  0  0  0  0  0  0  0  0  0  0
   15.6516   35.3493   35.4130 C   0  0  0  0  0  0  0  0  0  0  0  0
   16.3791   34.6310   34.5041 N   0  0  0  0  0  0  0  0  0  0  0  0
   15.9002   35.1934   36.8089 N   0  0  0  0  0  0  0  0  0  0  0  0
    9.8993   44.9858   32.1170 H   0  0  0  0  0  0  0  0  0  0  0  0
   11.0477   46.2976   34.5161 H   0  0  0  0  0  0  0  0  0  0  0  0
   10.9252   46.9038   32.9481 H   0  0  0  0  0  0  0  0  0  0  0  0
    8.6075   46.7734   33.6434 H   0  0  0  0  0  0  0  0  0  0  0  0
    8.5292   45.4558   34.8508 H   0  0  0  0  0  0  0  0  0  0  0  0
    4.9623   44.2231   32.4105 H   0  0  0  0  0  0  0  0  0  0  0  0
    4.9340   42.9911   33.7015 H   0  0  0  0  0  0  0  0  0  0  0  0
    6.0970   43.7166   30.2518 H   0  0  0  0  0  0  0  0  0  0  0  0
    6.2296   40.8763   33.4960 H   0  0  0  0  0  0  0  0  0  0  0  0
    7.0023   42.0023   28.7263 H   0  0  0  0  0  0  0  0  0  0  0  0
    7.1227   39.1692   31.9504 H   0  0  0  0  0  0  0  0  0  0  0  0
    7.5139   39.7277   29.5668 H   0  0  0  0  0  0  0  0  0  0  0  0
   11.3849   41.5422   31.4656 H   0  0  0  0  0  0  0  0  0  0  0  0
    9.8236   40.7227   31.7579 H   0  0  0  0  0  0  0  0  0  0  0  0
   11.6974   39.5021   30.3469 H   0  0  0  0  0  0  0  0  0  0  0  0
   10.1067   38.2782   32.6617 H   0  0  0  0  0  0  0  0  0  0  0  0
   13.6662   37.4551   31.2211 H   0  0  0  0  0  0  0  0  0  0  0  0
    8.9745   37.4204   30.9535 H   0  0  0  0  0  0  0  0  0  0  0  0
   11.2850   36.3051   32.5183 H   0  0  0  0  0  0  0  0  0  0  0  0
   10.8673   35.6930   30.4659 H   0  0  0  0  0  0  0  0  0  0  0  0
   12.3353   38.3587   34.7441 H   0  0  0  0  0  0  0  0  0  0  0  0
   16.7570   34.1787   32.4619 H   0  0  0  0  0  0  0  0  0  0  0  0
   15.3530   35.7358   37.5137 H   0  0  0  0  0  0  0  0  0  0  0  0
   16.6360   34.5316   37.1414 H   0  0  0  0  0  0  0  0  0  0  0  0
  1  2  2  0
  1  3  1  0
  3  4  1  0
  4  5  1  0
  6  1  1  0
  7  6  1  0
  6  8  1  0
  8  9  1  0
  9 10  1  0
  9 11  2  0
 10 12  1  0
 12 13  1  0
 13 14  2  0
 15 13  1  0
 14 16  1  0
 17 15  2  0
 16 18  2  0
 18 17  1  0
  4 19  2  0
  4 20  1  0
 21 20  1  0
 21 22  1  0
 22 23  1  0
 22 24  1  0
 23 25  1  0
 24 26  1  0
 24 27  1  0
 27 25  1  0
 25 28  1  0
 27 29  1  0
 30 28  1  0
 31 28  1  0
 32 30  2  0
 30 33  1  0
 34 31  2  0
 35 32  1  0
 33 36  2  0
 33 34  1  0
 37 35  2  0
 37 36  1  0
 36 38  1  0
  6 39  1  6
  7 40  1  0
  7 41  1  0
  8 42  1  0
  8 43  1  0
 12 44  1  0
 12 45  1  0
 14 46  1  0
 15 47  1  0
 16 48  1  0
 17 49  1  0
 18 50  1  0
 21 51  1  0
 21 52  1  0
 22 53  1  0
 24 54  1  0
 25 55  1  0
 26 56  1  0
 27 57  1  0
 29 58  1  0
 31 59  1  0
 35 60  1  0
 38 61  1  0
 38 62  1  0
M  CHG  1   5  -1
M  END
>  <EmbedRMS>  (162) 
0.08809387513459233

$$$$

     RDKit          3D

 62 65  0  0  0  0  0  0  0  0999 V2000
   10.2860   43.7720   33.8037 C   0  0  0  0  0  0  0  0  0  0  0  0
   11.4106   43.5876   34.3555 O   0  0  0  0  0  0  0  0  0  0  0  0
    9.3664   42.7314   33.7011 O   0  0  0  0  0  0  0  0  0  0  0  0
    9.8845   41.2346   34.2855 P   0  0  0  0  0  5  0  0  0  0  0  0
   10.3684   41.4692   35.8742 O   0  0  0  0  0  1  0  0  0  0  0  0
    9.9608   45.1098   33.2377 C   0  0  2  0  0  0  0  0  0  0  0  0
   11.0641   46.0385   33.4928 N   0  0  0  0  0  0  0  0  0  0  0  0
    8.6141   45.6557   33.7651 C   0  0  0  0  0  0  0  0  0  0  0  0
    8.5726   45.7761   35.2606 C   0  0  0  0  0  0  0  0  0  0  0  0
    8.4764   44.6188   36.0372 O   0  0  0  0  0  0  0  0  0  0  0  0
    8.6415   46.9125   35.8034 O   0  0  0  0  0  0  0  0  0  0  0  0
    8.4123   44.6403   37.4583 C   0  0  0  0  0  0  0  0  0  0  0  0
    8.4160   43.2294   37.9714 C   0  0  0  0  0  0  0  0  0  0  0  0
    7.3635   42.3610   37.6383 C   0  0  0  0  0  0  0  0  0  0  0  0
    9.4792   42.7535   38.7576 C   0  0  0  0  0  0  0  0  0  0  0  0
    7.3753   41.0359   38.0844 C   0  0  0  0  0  0  0  0  0  0  0  0
    9.4856   41.4281   39.2040 C   0  0  0  0  0  0  0  0  0  0  0  0
    8.4354   40.5698   38.8667 C   0  0  0  0  0  0  0  0  0  0  0  0
    8.8069   40.1917   34.2112 O   0  0  0  0  0  0  0  0  0  0  0  0
   11.2359   40.7902   33.3692 O   0  0  0  0  0  0  0  0  0  0  0  0
   10.9145   40.6896   31.9963 C   0  0  0  0  0  0  0  0  0  0  0  0
   11.5266   39.3899   31.4376 C   0  0  0  0  0  0  0  0  0  0  0  0
   12.7504   39.0918   32.0840 O   0  0  0  0  0  0  0  0  0  0  0  0
   10.6120   38.1915   31.6453 C   0  0  0  0  0  0  0  0  0  0  0  0
   12.9428   37.6854   32.0296 C   0  0  0  0  0  0  0  0  0  0  0  0
    9.6069   38.0857   30.6603 O   0  0  0  0  0  0  0  0  0  0  0  0
   11.5844   37.0186   31.6880 C   0  0  0  0  0  0  0  0  0  0  0  0
   13.4898   37.2165   33.3250 N   0  0  0  0  0  0  0  0  0  0  0  0
   11.6202   36.3063   30.4693 O   0  0  0  0  0  0  0  0  0  0  0  0
   14.4758   36.3264   33.5739 C   0  0  0  0  0  0  0  0  0  0  0  0
   13.1175   37.6308   34.5700 C   0  0  0  0  0  0  0  0  0  0  0  0
   15.2064   35.6140   32.6746 N   0  0  0  0  0  0  0  0  0  0  0  0
   14.6731   36.2268   34.9191 C   0  0  0  0  0  0  0  0  0  0  0  0
   13.8224   37.0450   35.5793 N   0  0  0  0  0  0  0  0  0  0  0  0
   16.1639   34.7596   33.1551 C   0  0  0  0  0  0  0  0  0  0  0  0
   15.6517   35.3489   35.4136 C   0  0  0  0  0  0  0  0  0  0  0  0
   16.3794   34.6310   34.5046 N   0  0  0  0  0  0  0  0  0  0  0  0
   15.9006   35.1931   36.8094 N   0  0  0  0  0  0  0  0  0  0  0  0
    9.8659   44.9822   32.1370 H   0  0  0  0  0  0  0  0  0  0  0  0
   11.1222   46.2527   34.5152 H   0  0  0  0  0  0  0  0  0  0  0  0
   10.8643   46.9384   32.9982 H   0  0  0  0  0  0  0  0  0  0  0  0
    7.7924   44.9799   33.4435 H   0  0  0  0  0  0  0  0  0  0  0  0
    8.4139   46.6477   33.3045 H   0  0  0  0  0  0  0  0  0  0  0  0
    9.2783   45.2100   37.8615 H   0  0  0  0  0  0  0  0  0  0  0  0
    7.4779   45.1478   37.7817 H   0  0  0  0  0  0  0  0  0  0  0  0
    6.5396   42.7090   37.0273 H   0  0  0  0  0  0  0  0  0  0  0  0
   10.3049   43.4032   39.0198 H   0  0  0  0  0  0  0  0  0  0  0  0
    6.5638   40.3697   37.8216 H   0  0  0  0  0  0  0  0  0  0  0  0
   10.3073   41.0650   39.8076 H   0  0  0  0  0  0  0  0  0  0  0  0
    8.4438   39.5434   39.2102 H   0  0  0  0  0  0  0  0  0  0  0  0
    9.8243   40.7184   31.7595 H   0  0  0  0  0  0  0  0  0  0  0  0
   11.3810   41.5527   31.4750 H   0  0  0  0  0  0  0  0  0  0  0  0
   11.7314   39.5341   30.3522 H   0  0  0  0  0  0  0  0  0  0  0  0
   10.1212   38.2680   32.6413 H   0  0  0  0  0  0  0  0  0  0  0  0
   13.6881   37.4711   31.2320 H   0  0  0  0  0  0  0  0  0  0  0  0
   10.0256   38.1750   29.7656 H   0  0  0  0  0  0  0  0  0  0  0  0
   11.2796   36.3123   32.4916 H   0  0  0  0  0  0  0  0  0  0  0  0
   11.9872   36.9100   29.7715 H   0  0  0  0  0  0  0  0  0  0  0  0
   12.3364   38.3596   34.7455 H   0  0  0  0  0  0  0  0  0  0  0  0
   16.7576   34.1795   32.4622 H   0  0  0  0  0  0  0  0  0  0  0  0
   15.3532   35.7351   37.5144 H   0  0  0  0  0  0  0  0  0  0  0  0
   16.6368   34.5316   37.1418 H   0  0  0  0  0  0  0  0  0  0  0  0
  1  2  2  0
  1  3  1  0
  3  4  1  0
  4  5  1  0
  6  1  1  0
  7  6  1  0
  6  8  1  0
  8  9  1  0
  9 10  1  0
  9 11  2  0
 10 12  1  0
 12 13  1  0
 13 14  2  0
 15 13  1  0
 14 16  1  0
 17 15  2  0
 16 18  2  0
 18 17  1  0
  4 19  2  0
  4 20  1  0
 21 20  1  0
 21 22  1  0
 22 23  1  0
 22 24  1  0
 23 25  1  0
 24 26  1  0
 24 27  1  0
 27 25  1  0
 25 28  1  0
 27 29  1  0
 30 28  1  0
 31 28  1  0
 32 30  2  0
 30 33  1  0
 34 31  2  0
 35 32  1  0
 33 36  2  0
 33 34  1  0
 37 35  2  0
 37 36  1  0
 36 38  1  0
  6 39  1  6
  7 40  1  0
  7 41  1  0
  8 42  1  0
  8 43  1  0
 12 44  1  0
 12 45  1  0
 14 46  1  0
 15 47  1  0
 16 48  1  0
 17 49  1  0
 18 50  1  0
 21 51  1  0
 21 52  1  0
 22 53  1  0
 24 54  1  0
 25 55  1  0
 26 56  1  0
 27 57  1  0
 29 58  1  0
 31 59  1  0
 35 60  1  0
 38 61  1  0
 38 62  1  0
M  CHG  1   5  -1
M  END
>  <EmbedRMS>  (163) 
0.08683908351263886

$$$$

     RDKit          3D

 62 65  0  0  0  0  0  0  0  0999 V2000
   10.2872   43.7715   33.8025 C   0  0  0  0  0  0  0  0  0  0  0  0
   11.4090   43.5882   34.3603 O   0  0  0  0  0  0  0  0  0  0  0  0
    9.3678   42.7308   33.6990 O   0  0  0  0  0  0  0  0  0  0  0  0
    9.8851   41.2341   34.2842 P   0  0  0  0  0  5  0  0  0  0  0  0
   10.3671   41.4691   35.8736 O   0  0  0  0  0  1  0  0  0  0  0  0
    9.9540   45.1147   33.2512 C   0  0  2  0  0  0  0  0  0  0  0  0
   11.0693   46.0350   33.4803 N   0  0  0  0  0  0  0  0  0  0  0  0
    8.6563   45.6647   33.8785 C   0  0  0  0  0  0  0  0  0  0  0  0
    8.7833   45.8839   35.3575 C   0  0  0  0  0  0  0  0  0  0  0  0
    8.7814   44.7813   36.2158 O   0  0  0  0  0  0  0  0  0  0  0  0
    8.9165   47.0533   35.8113 O   0  0  0  0  0  0  0  0  0  0  0  0
    8.8959   44.9002   37.6288 C   0  0  0  0  0  0  0  0  0  0  0  0
    8.9655   43.5278   38.2320 C   0  0  0  0  0  0  0  0  0  0  0  0
   10.1757   43.0312   38.7452 C   0  0  0  0  0  0  0  0  0  0  0  0
    7.8266   42.7062   38.2365 C   0  0  0  0  0  0  0  0  0  0  0  0
   10.2388   41.7360   39.2691 C   0  0  0  0  0  0  0  0  0  0  0  0
    7.8946   41.4110   38.7593 C   0  0  0  0  0  0  0  0  0  0  0  0
    9.0994   40.9267   39.2762 C   0  0  0  0  0  0  0  0  0  0  0  0
    8.8072   40.1916   34.2095 O   0  0  0  0  0  0  0  0  0  0  0  0
   11.2365   40.7893   33.3682 O   0  0  0  0  0  0  0  0  0  0  0  0
   10.9151   40.6880   31.9951 C   0  0  0  0  0  0  0  0  0  0  0  0
   11.5259   39.3871   31.4365 C   0  0  0  0  0  0  0  0  0  0  0  0
   12.7491   39.0893   32.0819 O   0  0  0  0  0  0  0  0  0  0  0  0
   10.6122   38.1893   31.6462 C   0  0  0  0  0  0  0  0  0  0  0  0
   12.9373   37.6828   32.0301 C   0  0  0  0  0  0  0  0  0  0  0  0
    9.6150   38.0838   30.6538 O   0  0  0  0  0  0  0  0  0  0  0  0
   11.5793   37.0136   31.7014 C   0  0  0  0  0  0  0  0  0  0  0  0
   13.4906   37.2170   33.3243 N   0  0  0  0  0  0  0  0  0  0  0  0
   11.6217   36.3253   30.4725 O   0  0  0  0  0  0  0  0  0  0  0  0
   14.4763   36.3267   33.5731 C   0  0  0  0  0  0  0  0  0  0  0  0
   13.1181   37.6309   34.5695 C   0  0  0  0  0  0  0  0  0  0  0  0
   15.2065   35.6137   32.6740 N   0  0  0  0  0  0  0  0  0  0  0  0
   14.6735   36.2270   34.9185 C   0  0  0  0  0  0  0  0  0  0  0  0
   13.8228   37.0451   35.5788 N   0  0  0  0  0  0  0  0  0  0  0  0
   16.1638   34.7593   33.1547 C   0  0  0  0  0  0  0  0  0  0  0  0
   15.6518   35.3489   35.4132 C   0  0  0  0  0  0  0  0  0  0  0  0
   16.3794   34.6308   34.5042 N   0  0  0  0  0  0  0  0  0  0  0  0
   15.9005   35.1931   36.8090 N   0  0  0  0  0  0  0  0  0  0  0  0
    9.7905   45.0046   32.1555 H   0  0  0  0  0  0  0  0  0  0  0  0
   10.8073   46.9734   33.0993 H   0  0  0  0  0  0  0  0  0  0  0  0
   11.8836   45.7169   32.9046 H   0  0  0  0  0  0  0  0  0  0  0  0
    8.3863   46.6227   33.3824 H   0  0  0  0  0  0  0  0  0  0  0  0
    7.8189   44.9584   33.6905 H   0  0  0  0  0  0  0  0  0  0  0  0
    8.0108   45.4396   38.0306 H   0  0  0  0  0  0  0  0  0  0  0  0
    9.8056   45.4875   37.8830 H   0  0  0  0  0  0  0  0  0  0  0  0
   11.0700   43.6418   38.7353 H   0  0  0  0  0  0  0  0  0  0  0  0
    6.8898   43.0674   37.8303 H   0  0  0  0  0  0  0  0  0  0  0  0
   11.1727   41.3576   39.6641 H   0  0  0  0  0  0  0  0  0  0  0  0
    7.0142   40.7815   38.7604 H   0  0  0  0  0  0  0  0  0  0  0  0
    9.1510   39.9233   39.6788 H   0  0  0  0  0  0  0  0  0  0  0  0
    9.8249   40.7178   31.7582 H   0  0  0  0  0  0  0  0  0  0  0  0
   11.3824   41.5504   31.4733 H   0  0  0  0  0  0  0  0  0  0  0  0
   11.7289   39.5288   30.3504 H   0  0  0  0  0  0  0  0  0  0  0  0
   10.1139   38.2718   32.6380 H   0  0  0  0  0  0  0  0  0  0  0  0
   13.6725   37.4637   31.2241 H   0  0  0  0  0  0  0  0  0  0  0  0
   10.0535   38.1084   29.7639 H   0  0  0  0  0  0  0  0  0  0  0  0
   11.2646   36.3134   32.5107 H   0  0  0  0  0  0  0  0  0  0  0  0
   12.1550   35.5032   30.6316 H   0  0  0  0  0  0  0  0  0  0  0  0
   12.3361   38.3587   34.7452 H   0  0  0  0  0  0  0  0  0  0  0  0
   16.7573   34.1789   32.4619 H   0  0  0  0  0  0  0  0  0  0  0  0
   16.6365   34.5314   37.1415 H   0  0  0  0  0  0  0  0  0  0  0  0
   15.3532   35.7353   37.5139 H   0  0  0  0  0  0  0  0  0  0  0  0
  1  2  2  0
  1  3  1  0
  3  4  1  0
  4  5  1  0
  6  1  1  0
  7  6  1  0
  6  8  1  0
  8  9  1  0
  9 10  1  0
  9 11  2  0
 10 12  1  0
 12 13  1  0
 13 14  2  0
 15 13  1  0
 14 16  1  0
 17 15  2  0
 16 18  2  0
 18 17  1  0
  4 19  2  0
  4 20  1  0
 21 20  1  0
 21 22  1  0
 22 23  1  0
 22 24  1  0
 23 25  1  0
 24 26  1  0
 24 27  1  0
 27 25  1  0
 25 28  1  0
 27 29  1  0
 30 28  1  0
 31 28  1  0
 32 30  2  0
 30 33  1  0
 34 31  2  0
 35 32  1  0
 33 36  2  0
 33 34  1  0
 37 35  2  0
 37 36  1  0
 36 38  1  0
  6 39  1  6
  7 40  1  0
  7 41  1  0
  8 42  1  0
  8 43  1  0
 12 44  1  0
 12 45  1  0
 14 46  1  0
 15 47  1  0
 16 48  1  0
 17 49  1  0
 18 50  1  0
 21 51  1  0
 21 52  1  0
 22 53  1  0
 24 54  1  0
 25 55  1  0
 26 56  1  0
 27 57  1  0
 29 58  1  0
 31 59  1  0
 35 60  1  0
 38 61  1  0
 38 62  1  0
M  CHG  1   5  -1
M  END
>  <EmbedRMS>  (164) 
0.08794815615080033

$$$$

     RDKit          3D

 62 65  0  0  0  0  0  0  0  0999 V2000
   10.2819   43.7752   33.8090 C   0  0  0  0  0  0  0  0  0  0  0  0
   11.4049   43.5915   34.3648 O   0  0  0  0  0  0  0  0  0  0  0  0
    9.3695   42.7292   33.6968 O   0  0  0  0  0  0  0  0  0  0  0  0
    9.8864   41.2337   34.2839 P   0  0  0  0  0  5  0  0  0  0  0  0
   10.3659   41.4703   35.8745 O   0  0  0  0  0  1  0  0  0  0  0  0
    9.9467   45.1212   33.2583 C   0  0  2  0  0  0  0  0  0  0  0  0
   11.0788   46.0249   33.4692 N   0  0  0  0  0  0  0  0  0  0  0  0
    8.6921   45.7003   33.9453 C   0  0  0  0  0  0  0  0  0  0  0  0
    7.4511   44.9387   33.5900 C   0  0  0  0  0  0  0  0  0  0  0  0
    6.9978   44.9406   32.2661 O   0  0  0  0  0  0  0  0  0  0  0  0
    6.8361   44.2920   34.4815 O   0  0  0  0  0  0  0  0  0  0  0  0
    5.8346   44.2370   31.8364 C   0  0  0  0  0  0  0  0  0  0  0  0
    4.5919   44.9146   32.3458 C   0  0  0  0  0  0  0  0  0  0  0  0
    4.2435   46.1890   31.8696 C   0  0  0  0  0  0  0  0  0  0  0  0
    3.7847   44.2966   33.3157 C   0  0  0  0  0  0  0  0  0  0  0  0
    3.0993   46.8324   32.3517 C   0  0  0  0  0  0  0  0  0  0  0  0
    2.6413   44.9436   33.7953 C   0  0  0  0  0  0  0  0  0  0  0  0
    2.2985   46.2100   33.3133 C   0  0  0  0  0  0  0  0  0  0  0  0
    8.8084   40.1913   34.2082 O   0  0  0  0  0  0  0  0  0  0  0  0
   11.2378   40.7896   33.3687 O   0  0  0  0  0  0  0  0  0  0  0  0
   10.9161   40.6896   31.9957 C   0  0  0  0  0  0  0  0  0  0  0  0
   11.5272   39.3897   31.4371 C   0  0  0  0  0  0  0  0  0  0  0  0
   12.7509   39.0914   32.0835 O   0  0  0  0  0  0  0  0  0  0  0  0
   10.6122   38.1916   31.6451 C   0  0  0  0  0  0  0  0  0  0  0  0
   12.9429   37.6851   32.0294 C   0  0  0  0  0  0  0  0  0  0  0  0
    9.6069   38.0858   30.6603 O   0  0  0  0  0  0  0  0  0  0  0  0
   11.5844   37.0185   31.6879 C   0  0  0  0  0  0  0  0  0  0  0  0
   13.4899   37.2163   33.3249 N   0  0  0  0  0  0  0  0  0  0  0  0
   11.6201   36.3062   30.4692 O   0  0  0  0  0  0  0  0  0  0  0  0
   14.4759   36.3263   33.5738 C   0  0  0  0  0  0  0  0  0  0  0  0
   13.1175   37.6307   34.5698 C   0  0  0  0  0  0  0  0  0  0  0  0
   15.2065   35.6138   32.6746 N   0  0  0  0  0  0  0  0  0  0  0  0
   14.6731   36.2267   34.9191 C   0  0  0  0  0  0  0  0  0  0  0  0
   13.8224   37.0450   35.5792 N   0  0  0  0  0  0  0  0  0  0  0  0
   16.1640   34.7596   33.1551 C   0  0  0  0  0  0  0  0  0  0  0  0
   15.6517   35.3489   35.4136 C   0  0  0  0  0  0  0  0  0  0  0  0
   16.3795   34.6310   34.5046 N   0  0  0  0  0  0  0  0  0  0  0  0
   15.9006   35.1931   36.8094 N   0  0  0  0  0  0  0  0  0  0  0  0
    9.7592   45.0224   32.1648 H   0  0  0  0  0  0  0  0  0  0  0  0
   11.8850   45.6845   32.8947 H   0  0  0  0  0  0  0  0  0  0  0  0
   10.8355   46.9618   33.0722 H   0  0  0  0  0  0  0  0  0  0  0  0
    8.5421   46.7523   33.6204 H   0  0  0  0  0  0  0  0  0  0  0  0
    8.8342   45.7095   35.0490 H   0  0  0  0  0  0  0  0  0  0  0  0
    5.8897   43.1768   32.1686 H   0  0  0  0  0  0  0  0  0  0  0  0
    5.8124   44.2328   30.7262 H   0  0  0  0  0  0  0  0  0  0  0  0
    4.8590   46.6827   31.1277 H   0  0  0  0  0  0  0  0  0  0  0  0
    4.0403   43.3178   33.7020 H   0  0  0  0  0  0  0  0  0  0  0  0
    2.8344   47.8141   31.9810 H   0  0  0  0  0  0  0  0  0  0  0  0
    2.0219   44.4638   34.5419 H   0  0  0  0  0  0  0  0  0  0  0  0
    1.4136   46.7095   33.6861 H   0  0  0  0  0  0  0  0  0  0  0  0
    9.8259   40.7192   31.7585 H   0  0  0  0  0  0  0  0  0  0  0  0
   11.3832   41.5525   31.4746 H   0  0  0  0  0  0  0  0  0  0  0  0
   11.7319   39.5336   30.3516 H   0  0  0  0  0  0  0  0  0  0  0  0
   10.1216   38.2684   32.6412 H   0  0  0  0  0  0  0  0  0  0  0  0
   13.6882   37.4704   31.2318 H   0  0  0  0  0  0  0  0  0  0  0  0
   10.0255   38.1751   29.7656 H   0  0  0  0  0  0  0  0  0  0  0  0
   11.2795   36.3123   32.4915 H   0  0  0  0  0  0  0  0  0  0  0  0
   11.9870   36.9098   29.7714 H   0  0  0  0  0  0  0  0  0  0  0  0
   12.3365   38.3595   34.7452 H   0  0  0  0  0  0  0  0  0  0  0  0
   16.7577   34.1794   32.4622 H   0  0  0  0  0  0  0  0  0  0  0  0
   16.6368   34.5316   37.1418 H   0  0  0  0  0  0  0  0  0  0  0  0
   15.3532   35.7351   37.5143 H   0  0  0  0  0  0  0  0  0  0  0  0
  1  2  2  0
  1  3  1  0
  3  4  1  0
  4  5  1  0
  6  1  1  0
  7  6  1  0
  6  8  1  0
  8  9  1  0
  9 10  1  0
  9 11  2  0
 10 12  1  0
 12 13  1  0
 13 14  2  0
 15 13  1  0
 14 16  1  0
 17 15  2  0
 16 18  2  0
 18 17  1  0
  4 19  2  0
  4 20  1  0
 21 20  1  0
 21 22  1  0
 22 23  1  0
 22 24  1  0
 23 25  1  0
 24 26  1  0
 24 27  1  0
 27 25  1  0
 25 28  1  0
 27 29  1  0
 30 28  1  0
 31 28  1  0
 32 30  2  0
 30 33  1  0
 34 31  2  0
 35 32  1  0
 33 36  2  0
 33 34  1  0
 37 35  2  0
 37 36  1  0
 36 38  1  0
  6 39  1  6
  7 40  1  0
  7 41  1  0
  8 42  1  0
  8 43  1  0
 12 44  1  0
 12 45  1  0
 14 46  1  0
 15 47  1  0
 16 48  1  0
 17 49  1  0
 18 50  1  0
 21 51  1  0
 21 52  1  0
 22 53  1  0
 24 54  1  0
 25 55  1  0
 26 56  1  0
 27 57  1  0
 29 58  1  0
 31 59  1  0
 35 60  1  0
 38 61  1  0
 38 62  1  0
M  CHG  1   5  -1
M  END
>  <EmbedRMS>  (165) 
0.0873370502497034

$$$$

     RDKit          3D

 62 65  0  0  0  0  0  0  0  0999 V2000
   10.2888   43.7672   33.8057 C   0  0  0  0  0  0  0  0  0  0  0  0
   11.4125   43.5779   34.3572 O   0  0  0  0  0  0  0  0  0  0  0  0
    9.3664   42.7301   33.7010 O   0  0  0  0  0  0  0  0  0  0  0  0
    9.8838   41.2329   34.2848 P   0  0  0  0  0  5  0  0  0  0  0  0
   10.3646   41.4691   35.8752 O   0  0  0  0  0  1  0  0  0  0  0  0
    9.9637   45.1120   33.2486 C   0  0  2  0  0  0  0  0  0  0  0  0
   11.0613   46.0555   33.4785 N   0  0  0  0  0  0  0  0  0  0  0  0
    8.6313   45.6736   33.7956 C   0  0  0  0  0  0  0  0  0  0  0  0
    8.4508   45.5114   35.2810 C   0  0  0  0  0  0  0  0  0  0  0  0
    9.5260   45.7221   36.1473 O   0  0  0  0  0  0  0  0  0  0  0  0
    7.3146   45.2087   35.7376 O   0  0  0  0  0  0  0  0  0  0  0  0
    9.4451   45.4959   37.5489 C   0  0  0  0  0  0  0  0  0  0  0  0
   10.8080   45.6712   38.1501 C   0  0  0  0  0  0  0  0  0  0  0  0
   11.7632   44.6484   38.0309 C   0  0  0  0  0  0  0  0  0  0  0  0
   11.1645   46.8787   38.7729 C   0  0  0  0  0  0  0  0  0  0  0  0
   13.0490   44.8220   38.5523 C   0  0  0  0  0  0  0  0  0  0  0  0
   12.4514   47.0480   39.2937 C   0  0  0  0  0  0  0  0  0  0  0  0
   13.3922   46.0198   39.1855 C   0  0  0  0  0  0  0  0  0  0  0  0
    8.8063   40.1902   34.2090 O   0  0  0  0  0  0  0  0  0  0  0  0
   11.2361   40.7889   33.3691 O   0  0  0  0  0  0  0  0  0  0  0  0
   10.9157   40.6888   31.9957 C   0  0  0  0  0  0  0  0  0  0  0  0
   11.5250   39.3873   31.4367 C   0  0  0  0  0  0  0  0  0  0  0  0
   12.7486   39.0880   32.0804 O   0  0  0  0  0  0  0  0  0  0  0  0
   10.6100   38.1909   31.6471 C   0  0  0  0  0  0  0  0  0  0  0  0
   12.9348   37.6808   32.0292 C   0  0  0  0  0  0  0  0  0  0  0  0
    9.6126   38.0874   30.6546 O   0  0  0  0  0  0  0  0  0  0  0  0
   11.5767   37.0133   31.7025 C   0  0  0  0  0  0  0  0  0  0  0  0
   13.4901   37.2165   33.3236 N   0  0  0  0  0  0  0  0  0  0  0  0
   11.6322   36.3231   30.4741 O   0  0  0  0  0  0  0  0  0  0  0  0
   14.4762   36.3266   33.5728 C   0  0  0  0  0  0  0  0  0  0  0  0
   13.1179   37.6308   34.5689 C   0  0  0  0  0  0  0  0  0  0  0  0
   15.2065   35.6135   32.6739 N   0  0  0  0  0  0  0  0  0  0  0  0
   14.6736   36.2272   34.9182 C   0  0  0  0  0  0  0  0  0  0  0  0
   13.8228   37.0453   35.5783 N   0  0  0  0  0  0  0  0  0  0  0  0
   16.1640   34.7593   33.1547 C   0  0  0  0  0  0  0  0  0  0  0  0
   15.6518   35.3491   35.4131 C   0  0  0  0  0  0  0  0  0  0  0  0
   16.3794   34.6309   34.5042 N   0  0  0  0  0  0  0  0  0  0  0  0
   15.9004   35.1933   36.8089 N   0  0  0  0  0  0  0  0  0  0  0  0
    9.8440   44.9942   32.1487 H   0  0  0  0  0  0  0  0  0  0  0  0
   11.9041   45.7369   32.9460 H   0  0  0  0  0  0  0  0  0  0  0  0
   11.3187   46.0933   34.4908 H   0  0  0  0  0  0  0  0  0  0  0  0
    8.5496   46.7521   33.5411 H   0  0  0  0  0  0  0  0  0  0  0  0
    7.7946   45.1536   33.2783 H   0  0  0  0  0  0  0  0  0  0  0  0
    9.0850   44.4614   37.7426 H   0  0  0  0  0  0  0  0  0  0  0  0
    8.7186   46.2057   38.0014 H   0  0  0  0  0  0  0  0  0  0  0  0
   11.5125   43.7201   37.5324 H   0  0  0  0  0  0  0  0  0  0  0  0
   10.4490   47.6877   38.8541 H   0  0  0  0  0  0  0  0  0  0  0  0
   13.7806   44.0294   38.4617 H   0  0  0  0  0  0  0  0  0  0  0  0
   12.7207   47.9780   39.7775 H   0  0  0  0  0  0  0  0  0  0  0  0
   14.3882   46.1533   39.5874 H   0  0  0  0  0  0  0  0  0  0  0  0
    9.8258   40.7205   31.7579 H   0  0  0  0  0  0  0  0  0  0  0  0
   11.3848   41.5507   31.4748 H   0  0  0  0  0  0  0  0  0  0  0  0
   11.7271   39.5290   30.3504 H   0  0  0  0  0  0  0  0  0  0  0  0
   10.1121   38.2730   32.6390 H   0  0  0  0  0  0  0  0  0  0  0  0
   13.6685   37.4592   31.2224 H   0  0  0  0  0  0  0  0  0  0  0  0
   10.0514   38.1111   29.7648 H   0  0  0  0  0  0  0  0  0  0  0  0
   11.2802   36.3129   32.5195 H   0  0  0  0  0  0  0  0  0  0  0  0
   10.8625   35.6961   30.4645 H   0  0  0  0  0  0  0  0  0  0  0  0
   12.3357   38.3582   34.7445 H   0  0  0  0  0  0  0  0  0  0  0  0
   16.7574   34.1787   32.4619 H   0  0  0  0  0  0  0  0  0  0  0  0
   15.3532   35.7356   37.5138 H   0  0  0  0  0  0  0  0  0  0  0  0
   16.6364   34.5315   37.1415 H   0  0  0  0  0  0  0  0  0  0  0  0
  1  2  2  0
  1  3  1  0
  3  4  1  0
  4  5  1  0
  6  1  1  0
  7  6  1  0
  6  8  1  0
  8  9  1  0
  9 10  1  0
  9 11  2  0
 10 12  1  0
 12 13  1  0
 13 14  2  0
 15 13  1  0
 14 16  1  0
 17 15  2  0
 16 18  2  0
 18 17  1  0
  4 19  2  0
  4 20  1  0
 21 20  1  0
 21 22  1  0
 22 23  1  0
 22 24  1  0
 23 25  1  0
 24 26  1  0
 24 27  1  0
 27 25  1  0
 25 28  1  0
 27 29  1  0
 30 28  1  0
 31 28  1  0
 32 30  2  0
 30 33  1  0
 34 31  2  0
 35 32  1  0
 33 36  2  0
 33 34  1  0
 37 35  2  0
 37 36  1  0
 36 38  1  0
  6 39  1  6
  7 40  1  0
  7 41  1  0
  8 42  1  0
  8 43  1  0
 12 44  1  0
 12 45  1  0
 14 46  1  0
 15 47  1  0
 16 48  1  0
 17 49  1  0
 18 50  1  0
 21 51  1  0
 21 52  1  0
 22 53  1  0
 24 54  1  0
 25 55  1  0
 26 56  1  0
 27 57  1  0
 29 58  1  0
 31 59  1  0
 35 60  1  0
 38 61  1  0
 38 62  1  0
M  CHG  1   5  -1
M  END
>  <EmbedRMS>  (166) 
0.08874125622319876

$$$$

     RDKit          3D

 62 65  0  0  0  0  0  0  0  0999 V2000
   10.2862   43.7711   33.8099 C   0  0  0  0  0  0  0  0  0  0  0  0
   11.4101   43.5817   34.3615 O   0  0  0  0  0  0  0  0  0  0  0  0
    9.3666   42.7311   33.7022 O   0  0  0  0  0  0  0  0  0  0  0  0
    9.8845   41.2331   34.2841 P   0  0  0  0  0  5  0  0  0  0  0  0
   10.3659   41.4676   35.8745 O   0  0  0  0  0  1  0  0  0  0  0  0
    9.9607   45.1125   33.2473 C   0  0  2  0  0  0  0  0  0  0  0  0
   11.0654   46.0481   33.4748 N   0  0  0  0  0  0  0  0  0  0  0  0
    8.6653   45.6570   33.8716 C   0  0  0  0  0  0  0  0  0  0  0  0
    8.2713   46.9586   33.2455 C   0  0  0  0  0  0  0  0  0  0  0  0
    7.6233   46.9554   32.0053 O   0  0  0  0  0  0  0  0  0  0  0  0
    8.5590   48.0435   33.8209 O   0  0  0  0  0  0  0  0  0  0  0  0
    7.1952   48.1432   31.3429 C   0  0  0  0  0  0  0  0  0  0  0  0
    6.0089   48.7399   32.0498 C   0  0  0  0  0  0  0  0  0  0  0  0
    4.7776   48.0647   32.0443 C   0  0  0  0  0  0  0  0  0  0  0  0
    6.1246   49.9568   32.7425 C   0  0  0  0  0  0  0  0  0  0  0  0
    3.6755   48.6041   32.7152 C   0  0  0  0  0  0  0  0  0  0  0  0
    5.0201   50.4928   33.4123 C   0  0  0  0  0  0  0  0  0  0  0  0
    3.7965   49.8175   33.3981 C   0  0  0  0  0  0  0  0  0  0  0  0
    8.8069   40.1905   34.2081 O   0  0  0  0  0  0  0  0  0  0  0  0
   11.2363   40.7907   33.3671 O   0  0  0  0  0  0  0  0  0  0  0  0
   10.9133   40.6860   31.9945 C   0  0  0  0  0  0  0  0  0  0  0  0
   11.5168   39.3797   31.4409 C   0  0  0  0  0  0  0  0  0  0  0  0
   12.7487   39.0886   32.0763 O   0  0  0  0  0  0  0  0  0  0  0  0
   10.6051   38.1876   31.6659 C   0  0  0  0  0  0  0  0  0  0  0  0
   12.9411   37.6829   32.0278 C   0  0  0  0  0  0  0  0  0  0  0  0
    9.6358   38.0930   30.6502 O   0  0  0  0  0  0  0  0  0  0  0  0
   11.5827   37.0179   31.6936 C   0  0  0  0  0  0  0  0  0  0  0  0
   13.4909   37.2177   33.3239 N   0  0  0  0  0  0  0  0  0  0  0  0
   11.6141   36.3180   30.4675 O   0  0  0  0  0  0  0  0  0  0  0  0
   14.4762   36.3270   33.5733 C   0  0  0  0  0  0  0  0  0  0  0  0
   13.1179   37.6316   34.5689 C   0  0  0  0  0  0  0  0  0  0  0  0
   15.2067   35.6140   32.6743 N   0  0  0  0  0  0  0  0  0  0  0  0
   14.6731   36.2272   34.9186 C   0  0  0  0  0  0  0  0  0  0  0  0
   13.8223   37.0456   35.5785 N   0  0  0  0  0  0  0  0  0  0  0  0
   16.1639   34.7595   33.1551 C   0  0  0  0  0  0  0  0  0  0  0  0
   15.6515   35.3491   35.4134 C   0  0  0  0  0  0  0  0  0  0  0  0
   16.3792   34.6310   34.5045 N   0  0  0  0  0  0  0  0  0  0  0  0
   15.9002   35.1933   36.8093 N   0  0  0  0  0  0  0  0  0  0  0  0
    9.8099   44.9951   32.1511 H   0  0  0  0  0  0  0  0  0  0  0  0
   11.9218   45.7023   32.9825 H   0  0  0  0  0  0  0  0  0  0  0  0
   11.2753   46.1183   34.4981 H   0  0  0  0  0  0  0  0  0  0  0  0
    8.7955   45.7907   34.9685 H   0  0  0  0  0  0  0  0  0  0  0  0
    7.8366   44.9327   33.7148 H   0  0  0  0  0  0  0  0  0  0  0  0
    6.9016   47.8837   30.3038 H   0  0  0  0  0  0  0  0  0  0  0  0
    8.0387   48.8651   31.2759 H   0  0  0  0  0  0  0  0  0  0  0  0
    4.6734   47.1213   31.5224 H   0  0  0  0  0  0  0  0  0  0  0  0
    7.0675   50.4889   32.7665 H   0  0  0  0  0  0  0  0  0  0  0  0
    2.7283   48.0805   32.7071 H   0  0  0  0  0  0  0  0  0  0  0  0
    5.1133   51.4309   33.9439 H   0  0  0  0  0  0  0  0  0  0  0  0
    2.9429   50.2334   33.9176 H   0  0  0  0  0  0  0  0  0  0  0  0
   11.3853   41.5434   31.4688 H   0  0  0  0  0  0  0  0  0  0  0  0
    9.8232   40.7210   31.7578 H   0  0  0  0  0  0  0  0  0  0  0  0
   11.6993   39.5065   30.3487 H   0  0  0  0  0  0  0  0  0  0  0  0
   10.1120   38.2721   32.6631 H   0  0  0  0  0  0  0  0  0  0  0  0
   13.6816   37.4633   31.2269 H   0  0  0  0  0  0  0  0  0  0  0  0
    9.0037   37.3827   30.9348 H   0  0  0  0  0  0  0  0  0  0  0  0
   11.2846   36.3040   32.4928 H   0  0  0  0  0  0  0  0  0  0  0  0
   11.8850   36.9590   29.7588 H   0  0  0  0  0  0  0  0  0  0  0  0
   12.3363   38.3599   34.7441 H   0  0  0  0  0  0  0  0  0  0  0  0
   16.7574   34.1791   32.4623 H   0  0  0  0  0  0  0  0  0  0  0  0
   15.3529   35.7356   37.5141 H   0  0  0  0  0  0  0  0  0  0  0  0
   16.6363   34.5317   37.1418 H   0  0  0  0  0  0  0  0  0  0  0  0
  1  2  2  0
  1  3  1  0
  3  4  1  0
  4  5  1  0
  6  1  1  0
  7  6  1  0
  6  8  1  0
  8  9  1  0
  9 10  1  0
  9 11  2  0
 10 12  1  0
 12 13  1  0
 13 14  2  0
 15 13  1  0
 14 16  1  0
 17 15  2  0
 16 18  2  0
 18 17  1  0
  4 19  2  0
  4 20  1  0
 21 20  1  0
 21 22  1  0
 22 23  1  0
 22 24  1  0
 23 25  1  0
 24 26  1  0
 24 27  1  0
 27 25  1  0
 25 28  1  0
 27 29  1  0
 30 28  1  0
 31 28  1  0
 32 30  2  0
 30 33  1  0
 34 31  2  0
 35 32  1  0
 33 36  2  0
 33 34  1  0
 37 35  2  0
 37 36  1  0
 36 38  1  0
  6 39  1  6
  7 40  1  0
  7 41  1  0
  8 42  1  0
  8 43  1  0
 12 44  1  0
 12 45  1  0
 14 46  1  0
 15 47  1  0
 16 48  1  0
 17 49  1  0
 18 50  1  0
 21 51  1  0
 21 52  1  0
 22 53  1  0
 24 54  1  0
 25 55  1  0
 26 56  1  0
 27 57  1  0
 29 58  1  0
 31 59  1  0
 35 60  1  0
 38 61  1  0
 38 62  1  0
M  CHG  1   5  -1
M  END
>  <EmbedRMS>  (167) 
0.08837655883923803

$$$$

     RDKit          3D

 62 65  0  0  0  0  0  0  0  0999 V2000
   10.2856   43.7717   33.8042 C   0  0  0  0  0  0  0  0  0  0  0  0
   11.4105   43.5871   34.3558 O   0  0  0  0  0  0  0  0  0  0  0  0
    9.3667   42.7310   33.7002 O   0  0  0  0  0  0  0  0  0  0  0  0
    9.8852   41.2345   34.2848 P   0  0  0  0  0  5  0  0  0  0  0  0
   10.3653   41.4702   35.8750 O   0  0  0  0  0  1  0  0  0  0  0  0
    9.9553   45.1130   33.2485 C   0  0  2  0  0  0  0  0  0  0  0  0
   11.0692   46.0343   33.4836 N   0  0  0  0  0  0  0  0  0  0  0  0
    8.6220   45.6646   33.8083 C   0  0  0  0  0  0  0  0  0  0  0  0
    8.5543   45.6248   35.3071 C   0  0  0  0  0  0  0  0  0  0  0  0
    9.1701   46.6327   36.0567 O   0  0  0  0  0  0  0  0  0  0  0  0
    7.9791   44.6589   35.8795 O   0  0  0  0  0  0  0  0  0  0  0  0
    9.3744   46.5394   37.4646 C   0  0  0  0  0  0  0  0  0  0  0  0
   10.4020   45.4824   37.7684 C   0  0  0  0  0  0  0  0  0  0  0  0
   11.7453   45.6895   37.4155 C   0  0  0  0  0  0  0  0  0  0  0  0
   10.0228   44.2601   38.3482 C   0  0  0  0  0  0  0  0  0  0  0  0
   12.6960   44.6902   37.6443 C   0  0  0  0  0  0  0  0  0  0  0  0
   10.9774   43.2646   38.5789 C   0  0  0  0  0  0  0  0  0  0  0  0
   12.3125   43.4786   38.2257 C   0  0  0  0  0  0  0  0  0  0  0  0
    8.8081   40.1913   34.2087 O   0  0  0  0  0  0  0  0  0  0  0  0
   11.2380   40.7908   33.3700 O   0  0  0  0  0  0  0  0  0  0  0  0
   10.9187   40.6906   31.9965 C   0  0  0  0  0  0  0  0  0  0  0  0
   11.5174   39.3825   31.4414 C   0  0  0  0  0  0  0  0  0  0  0  0
   12.7494   39.0894   32.0757 O   0  0  0  0  0  0  0  0  0  0  0  0
   10.6036   38.1900   31.6660 C   0  0  0  0  0  0  0  0  0  0  0  0
   12.9401   37.6835   32.0277 C   0  0  0  0  0  0  0  0  0  0  0  0
    9.6377   38.0786   30.6475 O   0  0  0  0  0  0  0  0  0  0  0  0
   11.5803   37.0204   31.6937 C   0  0  0  0  0  0  0  0  0  0  0  0
   13.4902   37.2178   33.3238 N   0  0  0  0  0  0  0  0  0  0  0  0
   11.6118   36.3194   30.4681 O   0  0  0  0  0  0  0  0  0  0  0  0
   14.4758   36.3272   33.5731 C   0  0  0  0  0  0  0  0  0  0  0  0
   13.1176   37.6319   34.5688 C   0  0  0  0  0  0  0  0  0  0  0  0
   15.2064   35.6142   32.6742 N   0  0  0  0  0  0  0  0  0  0  0  0
   14.6729   36.2274   34.9185 C   0  0  0  0  0  0  0  0  0  0  0  0
   13.8222   37.0458   35.5784 N   0  0  0  0  0  0  0  0  0  0  0  0
   16.1637   34.7597   33.1549 C   0  0  0  0  0  0  0  0  0  0  0  0
   15.6514   35.3493   35.4133 C   0  0  0  0  0  0  0  0  0  0  0  0
   16.3791   34.6312   34.5044 N   0  0  0  0  0  0  0  0  0  0  0  0
   15.9001   35.1935   36.8091 N   0  0  0  0  0  0  0  0  0  0  0  0
    9.8375   44.9922   32.1492 H   0  0  0  0  0  0  0  0  0  0  0  0
   11.1621   46.2341   34.5050 H   0  0  0  0  0  0  0  0  0  0  0  0
   10.8620   46.9412   33.0056 H   0  0  0  0  0  0  0  0  0  0  0  0
    8.4762   46.7116   33.4661 H   0  0  0  0  0  0  0  0  0  0  0  0
    7.7800   45.0693   33.3915 H   0  0  0  0  0  0  0  0  0  0  0  0
    9.7405   47.5193   37.8371 H   0  0  0  0  0  0  0  0  0  0  0  0
    8.4090   46.3304   37.9758 H   0  0  0  0  0  0  0  0  0  0  0  0
   12.0528   46.6208   36.9560 H   0  0  0  0  0  0  0  0  0  0  0  0
    8.9897   44.0745   38.6145 H   0  0  0  0  0  0  0  0  0  0  0  0
   13.7294   44.8535   37.3673 H   0  0  0  0  0  0  0  0  0  0  0  0
   10.6805   42.3240   39.0244 H   0  0  0  0  0  0  0  0  0  0  0  0
   13.0489   42.7049   38.3999 H   0  0  0  0  0  0  0  0  0  0  0  0
    9.8308   40.7397   31.7564 H   0  0  0  0  0  0  0  0  0  0  0  0
   11.3996   41.5456   31.4749 H   0  0  0  0  0  0  0  0  0  0  0  0
   11.6988   39.5094   30.3491 H   0  0  0  0  0  0  0  0  0  0  0  0
   10.1130   38.2589   32.6665 H   0  0  0  0  0  0  0  0  0  0  0  0
   13.6800   37.4629   31.2266 H   0  0  0  0  0  0  0  0  0  0  0  0
    8.8953   38.6909   30.8891 H   0  0  0  0  0  0  0  0  0  0  0  0
   11.2831   36.3061   32.4930 H   0  0  0  0  0  0  0  0  0  0  0  0
   11.8859   36.9590   29.7593 H   0  0  0  0  0  0  0  0  0  0  0  0
   12.3362   38.3603   34.7442 H   0  0  0  0  0  0  0  0  0  0  0  0
   16.7572   34.1793   32.4621 H   0  0  0  0  0  0  0  0  0  0  0  0
   16.6362   34.5318   37.1416 H   0  0  0  0  0  0  0  0  0  0  0  0
   15.3528   35.7357   37.5140 H   0  0  0  0  0  0  0  0  0  0  0  0
  1  2  2  0
  1  3  1  0
  3  4  1  0
  4  5  1  0
  6  1  1  0
  7  6  1  0
  6  8  1  0
  8  9  1  0
  9 10  1  0
  9 11  2  0
 10 12  1  0
 12 13  1  0
 13 14  2  0
 15 13  1  0
 14 16  1  0
 17 15  2  0
 16 18  2  0
 18 17  1  0
  4 19  2  0
  4 20  1  0
 21 20  1  0
 21 22  1  0
 22 23  1  0
 22 24  1  0
 23 25  1  0
 24 26  1  0
 24 27  1  0
 27 25  1  0
 25 28  1  0
 27 29  1  0
 30 28  1  0
 31 28  1  0
 32 30  2  0
 30 33  1  0
 34 31  2  0
 35 32  1  0
 33 36  2  0
 33 34  1  0
 37 35  2  0
 37 36  1  0
 36 38  1  0
  6 39  1  6
  7 40  1  0
  7 41  1  0
  8 42  1  0
  8 43  1  0
 12 44  1  0
 12 45  1  0
 14 46  1  0
 15 47  1  0
 16 48  1  0
 17 49  1  0
 18 50  1  0
 21 51  1  0
 21 52  1  0
 22 53  1  0
 24 54  1  0
 25 55  1  0
 26 56  1  0
 27 57  1  0
 29 58  1  0
 31 59  1  0
 35 60  1  0
 38 61  1  0
 38 62  1  0
M  CHG  1   5  -1
M  END
>  <EmbedRMS>  (168) 
0.08812599439900164

$$$$

     RDKit          3D

 62 65  0  0  0  0  0  0  0  0999 V2000
   10.2861   43.7710   33.8099 C   0  0  0  0  0  0  0  0  0  0  0  0
   11.4100   43.5818   34.3615 O   0  0  0  0  0  0  0  0  0  0  0  0
    9.3665   42.7311   33.7023 O   0  0  0  0  0  0  0  0  0  0  0  0
    9.8842   41.2332   34.2847 P   0  0  0  0  0  5  0  0  0  0  0  0
   10.3652   41.4678   35.8751 O   0  0  0  0  0  1  0  0  0  0  0  0
    9.9609   45.1122   33.2470 C   0  0  2  0  0  0  0  0  0  0  0  0
   11.0655   46.0481   33.4749 N   0  0  0  0  0  0  0  0  0  0  0  0
    8.6635   45.6564   33.8689 C   0  0  0  0  0  0  0  0  0  0  0  0
    8.2941   46.9740   33.2632 C   0  0  0  0  0  0  0  0  0  0  0  0
    8.7503   48.1547   33.8592 O   0  0  0  0  0  0  0  0  0  0  0  0
    7.6228   47.0069   32.1957 O   0  0  0  0  0  0  0  0  0  0  0  0
    8.6202   49.4368   33.2501 C   0  0  0  0  0  0  0  0  0  0  0  0
    9.5472   49.5465   32.0703 C   0  0  0  0  0  0  0  0  0  0  0  0
    9.0379   49.6616   30.7660 C   0  0  0  0  0  0  0  0  0  0  0  0
   10.9371   49.4991   32.2657 C   0  0  0  0  0  0  0  0  0  0  0  0
    9.9095   49.7351   29.6747 C   0  0  0  0  0  0  0  0  0  0  0  0
   11.8050   49.5716   31.1718 C   0  0  0  0  0  0  0  0  0  0  0  0
   11.2917   49.6904   29.8774 C   0  0  0  0  0  0  0  0  0  0  0  0
    8.8068   40.1904   34.2083 O   0  0  0  0  0  0  0  0  0  0  0  0
   11.2363   40.7902   33.3689 O   0  0  0  0  0  0  0  0  0  0  0  0
   10.9152   40.6897   31.9959 C   0  0  0  0  0  0  0  0  0  0  0  0
   11.5269   39.3898   31.4373 C   0  0  0  0  0  0  0  0  0  0  0  0
   12.7506   39.0917   32.0839 O   0  0  0  0  0  0  0  0  0  0  0  0
   10.6121   38.1915   31.6452 C   0  0  0  0  0  0  0  0  0  0  0  0
   12.9429   37.6853   32.0295 C   0  0  0  0  0  0  0  0  0  0  0  0
    9.6069   38.0857   30.6602 O   0  0  0  0  0  0  0  0  0  0  0  0
   11.5845   37.0186   31.6879 C   0  0  0  0  0  0  0  0  0  0  0  0
   13.4899   37.2164   33.3250 N   0  0  0  0  0  0  0  0  0  0  0  0
   11.6202   36.3062   30.4693 O   0  0  0  0  0  0  0  0  0  0  0  0
   14.4759   36.3263   33.5738 C   0  0  0  0  0  0  0  0  0  0  0  0
   13.1176   37.6307   34.5699 C   0  0  0  0  0  0  0  0  0  0  0  0
   15.2065   35.6139   32.6746 N   0  0  0  0  0  0  0  0  0  0  0  0
   14.6731   36.2267   34.9190 C   0  0  0  0  0  0  0  0  0  0  0  0
   13.8224   37.0450   35.5792 N   0  0  0  0  0  0  0  0  0  0  0  0
   16.1640   34.7596   33.1551 C   0  0  0  0  0  0  0  0  0  0  0  0
   15.6517   35.3489   35.4136 C   0  0  0  0  0  0  0  0  0  0  0  0
   16.3795   34.6310   34.5046 N   0  0  0  0  0  0  0  0  0  0  0  0
   15.9006   35.1931   36.8094 N   0  0  0  0  0  0  0  0  0  0  0  0
    9.8113   44.9953   32.1506 H   0  0  0  0  0  0  0  0  0  0  0  0
   11.9223   45.7038   32.9824 H   0  0  0  0  0  0  0  0  0  0  0  0
   11.2747   46.1197   34.4982 H   0  0  0  0  0  0  0  0  0  0  0  0
    8.7891   45.7800   34.9669 H   0  0  0  0  0  0  0  0  0  0  0  0
    7.8308   44.9386   33.7003 H   0  0  0  0  0  0  0  0  0  0  0  0
    7.5612   49.6133   32.9598 H   0  0  0  0  0  0  0  0  0  0  0  0
    8.8935   50.2136   33.9950 H   0  0  0  0  0  0  0  0  0  0  0  0
    7.9694   49.6900   30.5928 H   0  0  0  0  0  0  0  0  0  0  0  0
   11.3461   49.4001   33.2638 H   0  0  0  0  0  0  0  0  0  0  0  0
    9.5132   49.8238   28.6714 H   0  0  0  0  0  0  0  0  0  0  0  0
   12.8754   49.5334   31.3276 H   0  0  0  0  0  0  0  0  0  0  0  0
   11.9647   49.7457   29.0315 H   0  0  0  0  0  0  0  0  0  0  0  0
    9.8251   40.7190   31.7585 H   0  0  0  0  0  0  0  0  0  0  0  0
   11.3823   41.5526   31.4747 H   0  0  0  0  0  0  0  0  0  0  0  0
   11.7318   39.5338   30.3520 H   0  0  0  0  0  0  0  0  0  0  0  0
   10.1214   38.2681   32.6412 H   0  0  0  0  0  0  0  0  0  0  0  0
   13.6882   37.4709   31.2319 H   0  0  0  0  0  0  0  0  0  0  0  0
   10.0256   38.1750   29.7656 H   0  0  0  0  0  0  0  0  0  0  0  0
   11.2796   36.3123   32.4915 H   0  0  0  0  0  0  0  0  0  0  0  0
   11.9872   36.9099   29.7714 H   0  0  0  0  0  0  0  0  0  0  0  0
   12.3365   38.3596   34.7453 H   0  0  0  0  0  0  0  0  0  0  0  0
   16.7576   34.1794   32.4622 H   0  0  0  0  0  0  0  0  0  0  0  0
   16.6368   34.5316   37.1418 H   0  0  0  0  0  0  0  0  0  0  0  0
   15.3532   35.7351   37.5143 H   0  0  0  0  0  0  0  0  0  0  0  0
  1  2  2  0
  1  3  1  0
  3  4  1  0
  4  5  1  0
  6  1  1  0
  7  6  1  0
  6  8  1  0
  8  9  1  0
  9 10  1  0
  9 11  2  0
 10 12  1  0
 12 13  1  0
 13 14  2  0
 15 13  1  0
 14 16  1  0
 17 15  2  0
 16 18  2  0
 18 17  1  0
  4 19  2  0
  4 20  1  0
 21 20  1  0
 21 22  1  0
 22 23  1  0
 22 24  1  0
 23 25  1  0
 24 26  1  0
 24 27  1  0
 27 25  1  0
 25 28  1  0
 27 29  1  0
 30 28  1  0
 31 28  1  0
 32 30  2  0
 30 33  1  0
 34 31  2  0
 35 32  1  0
 33 36  2  0
 33 34  1  0
 37 35  2  0
 37 36  1  0
 36 38  1  0
  6 39  1  6
  7 40  1  0
  7 41  1  0
  8 42  1  0
  8 43  1  0
 12 44  1  0
 12 45  1  0
 14 46  1  0
 15 47  1  0
 16 48  1  0
 17 49  1  0
 18 50  1  0
 21 51  1  0
 21 52  1  0
 22 53  1  0
 24 54  1  0
 25 55  1  0
 26 56  1  0
 27 57  1  0
 29 58  1  0
 31 59  1  0
 35 60  1  0
 38 61  1  0
 38 62  1  0
M  CHG  1   5  -1
M  END
>  <EmbedRMS>  (169) 
0.08750515684501009

$$$$

     RDKit          3D

 62 65  0  0  0  0  0  0  0  0999 V2000
   10.2829   43.7754   33.8075 C   0  0  0  0  0  0  0  0  0  0  0  0
   11.4085   43.5916   34.3578 O   0  0  0  0  0  0  0  0  0  0  0  0
    9.3669   42.7317   33.7012 O   0  0  0  0  0  0  0  0  0  0  0  0
    9.8865   41.2345   34.2838 P   0  0  0  0  0  5  0  0  0  0  0  0
   10.3666   41.4694   35.8744 O   0  0  0  0  0  1  0  0  0  0  0  0
    9.9535   45.1114   33.2432 C   0  0  2  0  0  0  0  0  0  0  0  0
   11.0726   46.0266   33.4850 N   0  0  0  0  0  0  0  0  0  0  0  0
    8.6388   45.6427   33.8529 C   0  0  0  0  0  0  0  0  0  0  0  0
    8.2422   46.9499   33.2418 C   0  0  0  0  0  0  0  0  0  0  0  0
    8.5289   48.1401   33.9193 O   0  0  0  0  0  0  0  0  0  0  0  0
    7.6895   46.9688   32.1082 O   0  0  0  0  0  0  0  0  0  0  0  0
    8.3337   49.4312   33.3475 C   0  0  0  0  0  0  0  0  0  0  0  0
    9.3762   49.6954   32.2959 C   0  0  0  0  0  0  0  0  0  0  0  0
   10.7170   49.8802   32.6704 C   0  0  0  0  0  0  0  0  0  0  0  0
    9.0317   49.7158   30.9341 C   0  0  0  0  0  0  0  0  0  0  0  0
   11.6975   50.0920   31.6963 C   0  0  0  0  0  0  0  0  0  0  0  0
   10.0152   49.9288   29.9630 C   0  0  0  0  0  0  0  0  0  0  0  0
   11.3468   50.1173   30.3437 C   0  0  0  0  0  0  0  0  0  0  0  0
    8.8091   40.1914   34.2078 O   0  0  0  0  0  0  0  0  0  0  0  0
   11.2390   40.7910   33.3682 O   0  0  0  0  0  0  0  0  0  0  0  0
   10.9194   40.6896   31.9946 C   0  0  0  0  0  0  0  0  0  0  0  0
   11.5171   39.3801   31.4397 C   0  0  0  0  0  0  0  0  0  0  0  0
   12.7478   39.0861   32.0734 O   0  0  0  0  0  0  0  0  0  0  0  0
   10.6031   38.1891   31.6666 C   0  0  0  0  0  0  0  0  0  0  0  0
   12.9335   37.6796   32.0280 C   0  0  0  0  0  0  0  0  0  0  0  0
    9.6397   38.0777   30.6456 O   0  0  0  0  0  0  0  0  0  0  0  0
   11.5739   37.0154   31.7057 C   0  0  0  0  0  0  0  0  0  0  0  0
   13.4903   37.2178   33.3231 N   0  0  0  0  0  0  0  0  0  0  0  0
   11.6211   36.3376   30.4695 O   0  0  0  0  0  0  0  0  0  0  0  0
   14.4761   36.3273   33.5725 C   0  0  0  0  0  0  0  0  0  0  0  0
   13.1179   37.6316   34.5684 C   0  0  0  0  0  0  0  0  0  0  0  0
   15.2063   35.6139   32.6737 N   0  0  0  0  0  0  0  0  0  0  0  0
   14.6733   36.2277   34.9180 C   0  0  0  0  0  0  0  0  0  0  0  0
   13.8225   37.0459   35.5779 N   0  0  0  0  0  0  0  0  0  0  0  0
   16.1636   34.7594   33.1546 C   0  0  0  0  0  0  0  0  0  0  0  0
   15.6515   35.3494   35.4129 C   0  0  0  0  0  0  0  0  0  0  0  0
   16.3791   34.6311   34.5041 N   0  0  0  0  0  0  0  0  0  0  0  0
   15.9001   35.1935   36.8088 N   0  0  0  0  0  0  0  0  0  0  0  0
    9.8213   44.9851   32.1454 H   0  0  0  0  0  0  0  0  0  0  0  0
   11.0666   46.3397   34.4838 H   0  0  0  0  0  0  0  0  0  0  0  0
   10.9523   46.8760   32.8872 H   0  0  0  0  0  0  0  0  0  0  0  0
    7.8194   44.9113   33.6786 H   0  0  0  0  0  0  0  0  0  0  0  0
    8.7491   45.7675   34.9525 H   0  0  0  0  0  0  0  0  0  0  0  0
    7.3042   49.5145   32.9351 H   0  0  0  0  0  0  0  0  0  0  0  0
    8.4292   50.1930   34.1499 H   0  0  0  0  0  0  0  0  0  0  0  0
   11.0018   49.8534   33.7151 H   0  0  0  0  0  0  0  0  0  0  0  0
    8.0055   49.5634   30.6238 H   0  0  0  0  0  0  0  0  0  0  0  0
   12.7296   50.2334   31.9899 H   0  0  0  0  0  0  0  0  0  0  0  0
    9.7455   49.9446   28.9149 H   0  0  0  0  0  0  0  0  0  0  0  0
   12.1069   50.2802   29.5906 H   0  0  0  0  0  0  0  0  0  0  0  0
   11.4008   41.5437   31.4721 H   0  0  0  0  0  0  0  0  0  0  0  0
    9.8315   40.7396   31.7549 H   0  0  0  0  0  0  0  0  0  0  0  0
   11.6983   39.5042   30.3470 H   0  0  0  0  0  0  0  0  0  0  0  0
   10.1090   38.2632   32.6649 H   0  0  0  0  0  0  0  0  0  0  0  0
   13.6656   37.4541   31.2207 H   0  0  0  0  0  0  0  0  0  0  0  0
    8.8965   38.6900   30.8852 H   0  0  0  0  0  0  0  0  0  0  0  0
   11.2846   36.3060   32.5175 H   0  0  0  0  0  0  0  0  0  0  0  0
   10.8523   35.7094   30.4590 H   0  0  0  0  0  0  0  0  0  0  0  0
   12.3353   38.3588   34.7439 H   0  0  0  0  0  0  0  0  0  0  0  0
   16.7570   34.1788   32.4619 H   0  0  0  0  0  0  0  0  0  0  0  0
   16.6360   34.5317   37.1413 H   0  0  0  0  0  0  0  0  0  0  0  0
   15.3529   35.7359   37.5136 H   0  0  0  0  0  0  0  0  0  0  0  0
  1  2  2  0
  1  3  1  0
  3  4  1  0
  4  5  1  0
  6  1  1  0
  7  6  1  0
  6  8  1  0
  8  9  1  0
  9 10  1  0
  9 11  2  0
 10 12  1  0
 12 13  1  0
 13 14  2  0
 15 13  1  0
 14 16  1  0
 17 15  2  0
 16 18  2  0
 18 17  1  0
  4 19  2  0
  4 20  1  0
 21 20  1  0
 21 22  1  0
 22 23  1  0
 22 24  1  0
 23 25  1  0
 24 26  1  0
 24 27  1  0
 27 25  1  0
 25 28  1  0
 27 29  1  0
 30 28  1  0
 31 28  1  0
 32 30  2  0
 30 33  1  0
 34 31  2  0
 35 32  1  0
 33 36  2  0
 33 34  1  0
 37 35  2  0
 37 36  1  0
 36 38  1  0
  6 39  1  6
  7 40  1  0
  7 41  1  0
  8 42  1  0
  8 43  1  0
 12 44  1  0
 12 45  1  0
 14 46  1  0
 15 47  1  0
 16 48  1  0
 17 49  1  0
 18 50  1  0
 21 51  1  0
 21 52  1  0
 22 53  1  0
 24 54  1  0
 25 55  1  0
 26 56  1  0
 27 57  1  0
 29 58  1  0
 31 59  1  0
 35 60  1  0
 38 61  1  0
 38 62  1  0
M  CHG  1   5  -1
M  END
>  <EmbedRMS>  (170) 
0.08914835501487886

$$$$

     RDKit          3D

 62 65  0  0  0  0  0  0  0  0999 V2000
   10.2810   43.7752   33.8077 C   0  0  0  0  0  0  0  0  0  0  0  0
   11.4038   43.5912   34.3640 O   0  0  0  0  0  0  0  0  0  0  0  0
    9.3693   42.7288   33.6949 O   0  0  0  0  0  0  0  0  0  0  0  0
    9.8866   41.2337   34.2832 P   0  0  0  0  0  5  0  0  0  0  0  0
   10.3657   41.4709   35.8738 O   0  0  0  0  0  1  0  0  0  0  0  0
    9.9453   45.1234   33.2617 C   0  0  2  0  0  0  0  0  0  0  0  0
   11.0812   46.0236   33.4686 N   0  0  0  0  0  0  0  0  0  0  0  0
    8.6967   45.7031   33.9603 C   0  0  0  0  0  0  0  0  0  0  0  0
    7.4380   45.0151   33.5273 C   0  0  0  0  0  0  0  0  0  0  0  0
    6.8967   44.0028   34.3241 O   0  0  0  0  0  0  0  0  0  0  0  0
    6.8936   45.3348   32.4351 O   0  0  0  0  0  0  0  0  0  0  0  0
    5.7084   43.3017   33.9752 C   0  0  0  0  0  0  0  0  0  0  0  0
    5.4619   42.2162   34.9813 C   0  0  0  0  0  0  0  0  0  0  0  0
    5.0390   42.5455   36.2793 C   0  0  0  0  0  0  0  0  0  0  0  0
    5.6961   40.8703   34.6534 C   0  0  0  0  0  0  0  0  0  0  0  0
    4.8416   41.5406   37.2317 C   0  0  0  0  0  0  0  0  0  0  0  0
    5.4990   39.8686   35.6090 C   0  0  0  0  0  0  0  0  0  0  0  0
    5.0711   40.2032   36.8967 C   0  0  0  0  0  0  0  0  0  0  0  0
    8.8111   40.1892   34.2081 O   0  0  0  0  0  0  0  0  0  0  0  0
   11.2381   40.7906   33.3671 O   0  0  0  0  0  0  0  0  0  0  0  0
   10.9142   40.6859   31.9946 C   0  0  0  0  0  0  0  0  0  0  0  0
   11.5171   39.3796   31.4408 C   0  0  0  0  0  0  0  0  0  0  0  0
   12.7489   39.0884   32.0760 O   0  0  0  0  0  0  0  0  0  0  0  0
   10.6050   38.1877   31.6661 C   0  0  0  0  0  0  0  0  0  0  0  0
   12.9411   37.6827   32.0278 C   0  0  0  0  0  0  0  0  0  0  0  0
    9.6357   38.0932   30.6505 O   0  0  0  0  0  0  0  0  0  0  0  0
   11.5825   37.0179   31.6937 C   0  0  0  0  0  0  0  0  0  0  0  0
   13.4908   37.2176   33.3239 N   0  0  0  0  0  0  0  0  0  0  0  0
   11.6138   36.3180   30.4676 O   0  0  0  0  0  0  0  0  0  0  0  0
   14.4762   36.3269   33.5733 C   0  0  0  0  0  0  0  0  0  0  0  0
   13.1178   37.6316   34.5689 C   0  0  0  0  0  0  0  0  0  0  0  0
   15.2067   35.6140   32.6744 N   0  0  0  0  0  0  0  0  0  0  0  0
   14.6731   36.2272   34.9186 C   0  0  0  0  0  0  0  0  0  0  0  0
   13.8223   37.0456   35.5785 N   0  0  0  0  0  0  0  0  0  0  0  0
   16.1639   34.7595   33.1551 C   0  0  0  0  0  0  0  0  0  0  0  0
   15.6515   35.3491   35.4134 C   0  0  0  0  0  0  0  0  0  0  0  0
   16.3792   34.6310   34.5046 N   0  0  0  0  0  0  0  0  0  0  0  0
   15.9002   35.1934   36.8093 N   0  0  0  0  0  0  0  0  0  0  0  0
    9.7513   45.0289   32.1688 H   0  0  0  0  0  0  0  0  0  0  0  0
   10.8423   46.9594   33.0663 H   0  0  0  0  0  0  0  0  0  0  0  0
   11.8860   45.6776   32.8955 H   0  0  0  0  0  0  0  0  0  0  0  0
    8.8046   45.6257   35.0647 H   0  0  0  0  0  0  0  0  0  0  0  0
    8.5957   46.7830   33.7157 H   0  0  0  0  0  0  0  0  0  0  0  0
    5.8130   42.8725   32.9542 H   0  0  0  0  0  0  0  0  0  0  0  0
    4.8483   44.0060   33.9680 H   0  0  0  0  0  0  0  0  0  0  0  0
    4.8663   43.5792   36.5527 H   0  0  0  0  0  0  0  0  0  0  0  0
    6.0337   40.5961   33.6616 H   0  0  0  0  0  0  0  0  0  0  0  0
    4.5142   41.7991   38.2304 H   0  0  0  0  0  0  0  0  0  0  0  0
    5.6810   38.8331   35.3519 H   0  0  0  0  0  0  0  0  0  0  0  0
    4.9201   39.4268   37.6355 H   0  0  0  0  0  0  0  0  0  0  0  0
   11.3861   41.5432   31.4686 H   0  0  0  0  0  0  0  0  0  0  0  0
    9.8239   40.7211   31.7582 H   0  0  0  0  0  0  0  0  0  0  0  0
   11.6994   39.5064   30.3486 H   0  0  0  0  0  0  0  0  0  0  0  0
   10.1121   38.2725   32.6634 H   0  0  0  0  0  0  0  0  0  0  0  0
   13.6815   37.4629   31.2269 H   0  0  0  0  0  0  0  0  0  0  0  0
    9.0024   37.3843   30.9361 H   0  0  0  0  0  0  0  0  0  0  0  0
   11.2844   36.3041   32.4929 H   0  0  0  0  0  0  0  0  0  0  0  0
   11.8846   36.9590   29.7589 H   0  0  0  0  0  0  0  0  0  0  0  0
   12.3362   38.3598   34.7441 H   0  0  0  0  0  0  0  0  0  0  0  0
   16.7574   34.1791   32.4623 H   0  0  0  0  0  0  0  0  0  0  0  0
   15.3529   35.7356   37.5141 H   0  0  0  0  0  0  0  0  0  0  0  0
   16.6362   34.5317   37.1418 H   0  0  0  0  0  0  0  0  0  0  0  0
  1  2  2  0
  1  3  1  0
  3  4  1  0
  4  5  1  0
  6  1  1  0
  7  6  1  0
  6  8  1  0
  8  9  1  0
  9 10  1  0
  9 11  2  0
 10 12  1  0
 12 13  1  0
 13 14  2  0
 15 13  1  0
 14 16  1  0
 17 15  2  0
 16 18  2  0
 18 17  1  0
  4 19  2  0
  4 20  1  0
 21 20  1  0
 21 22  1  0
 22 23  1  0
 22 24  1  0
 23 25  1  0
 24 26  1  0
 24 27  1  0
 27 25  1  0
 25 28  1  0
 27 29  1  0
 30 28  1  0
 31 28  1  0
 32 30  2  0
 30 33  1  0
 34 31  2  0
 35 32  1  0
 33 36  2  0
 33 34  1  0
 37 35  2  0
 37 36  1  0
 36 38  1  0
  6 39  1  6
  7 40  1  0
  7 41  1  0
  8 42  1  0
  8 43  1  0
 12 44  1  0
 12 45  1  0
 14 46  1  0
 15 47  1  0
 16 48  1  0
 17 49  1  0
 18 50  1  0
 21 51  1  0
 21 52  1  0
 22 53  1  0
 24 54  1  0
 25 55  1  0
 26 56  1  0
 27 57  1  0
 29 58  1  0
 31 59  1  0
 35 60  1  0
 38 61  1  0
 38 62  1  0
M  CHG  1   5  -1
M  END
>  <EmbedRMS>  (171) 
0.08810036892860396

$$$$

     RDKit          3D

 62 65  0  0  0  0  0  0  0  0999 V2000
   10.2829   43.7755   33.8077 C   0  0  0  0  0  0  0  0  0  0  0  0
   11.4086   43.5914   34.3577 O   0  0  0  0  0  0  0  0  0  0  0  0
    9.3667   42.7319   33.7015 O   0  0  0  0  0  0  0  0  0  0  0  0
    9.8860   41.2347   34.2845 P   0  0  0  0  0  5  0  0  0  0  0  0
   10.3662   41.4696   35.8751 O   0  0  0  0  0  1  0  0  0  0  0  0
    9.9535   45.1118   33.2435 C   0  0  2  0  0  0  0  0  0  0  0  0
   11.0725   46.0269   33.4847 N   0  0  0  0  0  0  0  0  0  0  0  0
    8.6407   45.6446   33.8549 C   0  0  0  0  0  0  0  0  0  0  0  0
    8.2200   46.9301   33.2134 C   0  0  0  0  0  0  0  0  0  0  0  0
    7.6556   46.9059   31.9332 O   0  0  0  0  0  0  0  0  0  0  0  0
    8.4068   48.0223   33.8161 O   0  0  0  0  0  0  0  0  0  0  0  0
    7.2113   48.0768   31.2516 C   0  0  0  0  0  0  0  0  0  0  0  0
    5.9521   48.6055   31.8825 C   0  0  0  0  0  0  0  0  0  0  0  0
    5.9592   49.8206   32.5879 C   0  0  0  0  0  0  0  0  0  0  0  0
    4.7604   47.8680   31.7924 C   0  0  0  0  0  0  0  0  0  0  0  0
    4.7871   50.2931   33.1867 C   0  0  0  0  0  0  0  0  0  0  0  0
    3.5905   48.3442   32.3924 C   0  0  0  0  0  0  0  0  0  0  0  0
    3.6036   49.5561   33.0885 C   0  0  0  0  0  0  0  0  0  0  0  0
    8.8089   40.1914   34.2081 O   0  0  0  0  0  0  0  0  0  0  0  0
   11.2386   40.7916   33.3693 O   0  0  0  0  0  0  0  0  0  0  0  0
   10.9187   40.6906   31.9959 C   0  0  0  0  0  0  0  0  0  0  0  0
   11.5175   39.3824   31.4412 C   0  0  0  0  0  0  0  0  0  0  0  0
   12.7494   39.0893   32.0756 O   0  0  0  0  0  0  0  0  0  0  0  0
   10.6036   38.1899   31.6659 C   0  0  0  0  0  0  0  0  0  0  0  0
   12.9401   37.6834   32.0276 C   0  0  0  0  0  0  0  0  0  0  0  0
    9.6376   38.0785   30.6474 O   0  0  0  0  0  0  0  0  0  0  0  0
   11.5803   37.0204   31.6937 C   0  0  0  0  0  0  0  0  0  0  0  0
   13.4902   37.2177   33.3237 N   0  0  0  0  0  0  0  0  0  0  0  0
   11.6118   36.3193   30.4680 O   0  0  0  0  0  0  0  0  0  0  0  0
   14.4759   36.3271   33.5731 C   0  0  0  0  0  0  0  0  0  0  0  0
   13.1176   37.6317   34.5688 C   0  0  0  0  0  0  0  0  0  0  0  0
   15.2064   35.6141   32.6742 N   0  0  0  0  0  0  0  0  0  0  0  0
   14.6729   36.2274   34.9184 C   0  0  0  0  0  0  0  0  0  0  0  0
   13.8221   37.0457   35.5783 N   0  0  0  0  0  0  0  0  0  0  0  0
   16.1637   34.7597   33.1549 C   0  0  0  0  0  0  0  0  0  0  0  0
   15.6514   35.3493   35.4133 C   0  0  0  0  0  0  0  0  0  0  0  0
   16.3791   34.6312   34.5044 N   0  0  0  0  0  0  0  0  0  0  0  0
   15.9001   35.1935   36.8091 N   0  0  0  0  0  0  0  0  0  0  0  0
    9.8207   44.9851   32.1458 H   0  0  0  0  0  0  0  0  0  0  0  0
   10.9391   46.8872   32.9054 H   0  0  0  0  0  0  0  0  0  0  0  0
   11.0798   46.3212   34.4892 H   0  0  0  0  0  0  0  0  0  0  0  0
    7.8262   44.9042   33.6995 H   0  0  0  0  0  0  0  0  0  0  0  0
    8.7575   45.7886   34.9520 H   0  0  0  0  0  0  0  0  0  0  0  0
    7.0002   47.8128   30.1938 H   0  0  0  0  0  0  0  0  0  0  0  0
    8.0192   48.8412   31.2450 H   0  0  0  0  0  0  0  0  0  0  0  0
    6.8697   50.4000   32.6766 H   0  0  0  0  0  0  0  0  0  0  0  0
    4.7395   46.9253   31.2595 H   0  0  0  0  0  0  0  0  0  0  0  0
    4.7967   51.2301   33.7285 H   0  0  0  0  0  0  0  0  0  0  0  0
    2.6742   47.7728   32.3193 H   0  0  0  0  0  0  0  0  0  0  0  0
    2.6975   49.9230   33.5532 H   0  0  0  0  0  0  0  0  0  0  0  0
    9.8307   40.7395   31.7563 H   0  0  0  0  0  0  0  0  0  0  0  0
   11.3992   41.5454   31.4737 H   0  0  0  0  0  0  0  0  0  0  0  0
   11.6989   39.5090   30.3489 H   0  0  0  0  0  0  0  0  0  0  0  0
   10.1130   38.2589   32.6664 H   0  0  0  0  0  0  0  0  0  0  0  0
   13.6800   37.4628   31.2265 H   0  0  0  0  0  0  0  0  0  0  0  0
    8.8952   38.6908   30.8892 H   0  0  0  0  0  0  0  0  0  0  0  0
   11.2830   36.3060   32.4929 H   0  0  0  0  0  0  0  0  0  0  0  0
   11.8859   36.9589   29.7593 H   0  0  0  0  0  0  0  0  0  0  0  0
   12.3360   38.3600   34.7441 H   0  0  0  0  0  0  0  0  0  0  0  0
   16.7572   34.1793   32.4621 H   0  0  0  0  0  0  0  0  0  0  0  0
   16.6362   34.5318   37.1416 H   0  0  0  0  0  0  0  0  0  0  0  0
   15.3528   35.7357   37.5140 H   0  0  0  0  0  0  0  0  0  0  0  0
  1  2  2  0
  1  3  1  0
  3  4  1  0
  4  5  1  0
  6  1  1  0
  7  6  1  0
  6  8  1  0
  8  9  1  0
  9 10  1  0
  9 11  2  0
 10 12  1  0
 12 13  1  0
 13 14  2  0
 15 13  1  0
 14 16  1  0
 17 15  2  0
 16 18  2  0
 18 17  1  0
  4 19  2  0
  4 20  1  0
 21 20  1  0
 21 22  1  0
 22 23  1  0
 22 24  1  0
 23 25  1  0
 24 26  1  0
 24 27  1  0
 27 25  1  0
 25 28  1  0
 27 29  1  0
 30 28  1  0
 31 28  1  0
 32 30  2  0
 30 33  1  0
 34 31  2  0
 35 32  1  0
 33 36  2  0
 33 34  1  0
 37 35  2  0
 37 36  1  0
 36 38  1  0
  6 39  1  6
  7 40  1  0
  7 41  1  0
  8 42  1  0
  8 43  1  0
 12 44  1  0
 12 45  1  0
 14 46  1  0
 15 47  1  0
 16 48  1  0
 17 49  1  0
 18 50  1  0
 21 51  1  0
 21 52  1  0
 22 53  1  0
 24 54  1  0
 25 55  1  0
 26 56  1  0
 27 57  1  0
 29 58  1  0
 31 59  1  0
 35 60  1  0
 38 61  1  0
 38 62  1  0
M  CHG  1   5  -1
M  END
>  <EmbedRMS>  (172) 
0.08803627782156903

$$$$

     RDKit          3D

 62 65  0  0  0  0  0  0  0  0999 V2000
   10.2855   43.7718   33.8042 C   0  0  0  0  0  0  0  0  0  0  0  0
   11.4104   43.5871   34.3557 O   0  0  0  0  0  0  0  0  0  0  0  0
    9.3664   42.7313   33.7003 O   0  0  0  0  0  0  0  0  0  0  0  0
    9.8848   41.2347   34.2850 P   0  0  0  0  0  5  0  0  0  0  0  0
   10.3657   41.4703   35.8749 O   0  0  0  0  0  1  0  0  0  0  0  0
    9.9554   45.1131   33.2485 C   0  0  2  0  0  0  0  0  0  0  0  0
   11.0692   46.0343   33.4837 N   0  0  0  0  0  0  0  0  0  0  0  0
    8.6220   45.6648   33.8082 C   0  0  0  0  0  0  0  0  0  0  0  0
    8.5542   45.6251   35.3070 C   0  0  0  0  0  0  0  0  0  0  0  0
    9.1699   46.6333   36.0565 O   0  0  0  0  0  0  0  0  0  0  0  0
    7.9793   44.6591   35.8795 O   0  0  0  0  0  0  0  0  0  0  0  0
    9.3742   46.5401   37.4644 C   0  0  0  0  0  0  0  0  0  0  0  0
   10.4021   45.4835   37.7683 C   0  0  0  0  0  0  0  0  0  0  0  0
   10.0233   44.2610   38.3478 C   0  0  0  0  0  0  0  0  0  0  0  0
   11.7454   45.6912   37.4156 C   0  0  0  0  0  0  0  0  0  0  0  0
   10.9782   43.2658   38.5785 C   0  0  0  0  0  0  0  0  0  0  0  0
   12.6965   44.6921   37.6444 C   0  0  0  0  0  0  0  0  0  0  0  0
   12.3133   43.4804   38.2255 C   0  0  0  0  0  0  0  0  0  0  0  0
    8.8076   40.1915   34.2094 O   0  0  0  0  0  0  0  0  0  0  0  0
   11.2366   40.7907   33.3693 O   0  0  0  0  0  0  0  0  0  0  0  0
   10.9152   40.6899   31.9963 C   0  0  0  0  0  0  0  0  0  0  0  0
   11.5269   39.3899   31.4376 C   0  0  0  0  0  0  0  0  0  0  0  0
   12.7507   39.0917   32.0840 O   0  0  0  0  0  0  0  0  0  0  0  0
   10.6121   38.1916   31.6453 C   0  0  0  0  0  0  0  0  0  0  0  0
   12.9429   37.6854   32.0296 C   0  0  0  0  0  0  0  0  0  0  0  0
    9.6070   38.0858   30.6603 O   0  0  0  0  0  0  0  0  0  0  0  0
   11.5845   37.0187   31.6880 C   0  0  0  0  0  0  0  0  0  0  0  0
   13.4899   37.2164   33.3250 N   0  0  0  0  0  0  0  0  0  0  0  0
   11.6202   36.3063   30.4693 O   0  0  0  0  0  0  0  0  0  0  0  0
   14.4758   36.3264   33.5739 C   0  0  0  0  0  0  0  0  0  0  0  0
   13.1176   37.6309   34.5700 C   0  0  0  0  0  0  0  0  0  0  0  0
   15.2065   35.6139   32.6746 N   0  0  0  0  0  0  0  0  0  0  0  0
   14.6731   36.2268   34.9191 C   0  0  0  0  0  0  0  0  0  0  0  0
   13.8225   37.0451   35.5793 N   0  0  0  0  0  0  0  0  0  0  0  0
   16.1640   34.7596   33.1551 C   0  0  0  0  0  0  0  0  0  0  0  0
   15.6517   35.3489   35.4136 C   0  0  0  0  0  0  0  0  0  0  0  0
   16.3795   34.6310   34.5046 N   0  0  0  0  0  0  0  0  0  0  0  0
   15.9006   35.1931   36.8094 N   0  0  0  0  0  0  0  0  0  0  0  0
    9.8376   44.9923   32.1492 H   0  0  0  0  0  0  0  0  0  0  0  0
   10.8621   46.9413   33.0056 H   0  0  0  0  0  0  0  0  0  0  0  0
   11.1621   46.2342   34.5050 H   0  0  0  0  0  0  0  0  0  0  0  0
    7.7800   45.0695   33.3915 H   0  0  0  0  0  0  0  0  0  0  0  0
    8.4762   46.7117   33.4659 H   0  0  0  0  0  0  0  0  0  0  0  0
    8.4089   46.3309   37.9756 H   0  0  0  0  0  0  0  0  0  0  0  0
    9.7400   47.5202   37.8368 H   0  0  0  0  0  0  0  0  0  0  0  0
    8.9903   44.0749   38.6139 H   0  0  0  0  0  0  0  0  0  0  0  0
   12.0527   46.6226   36.9563 H   0  0  0  0  0  0  0  0  0  0  0  0
   10.6816   42.3250   39.0238 H   0  0  0  0  0  0  0  0  0  0  0  0
   13.7299   44.8559   37.3676 H   0  0  0  0  0  0  0  0  0  0  0  0
   13.0499   42.7068   38.3997 H   0  0  0  0  0  0  0  0  0  0  0  0
    9.8251   40.7190   31.7592 H   0  0  0  0  0  0  0  0  0  0  0  0
   11.3821   41.5527   31.4749 H   0  0  0  0  0  0  0  0  0  0  0  0
   11.7317   39.5340   30.3522 H   0  0  0  0  0  0  0  0  0  0  0  0
   10.1214   38.2682   32.6413 H   0  0  0  0  0  0  0  0  0  0  0  0
   13.6882   37.4710   31.2320 H   0  0  0  0  0  0  0  0  0  0  0  0
   10.0257   38.1752   29.7657 H   0  0  0  0  0  0  0  0  0  0  0  0
   11.2796   36.3124   32.4916 H   0  0  0  0  0  0  0  0  0  0  0  0
   11.9872   36.9100   29.7715 H   0  0  0  0  0  0  0  0  0  0  0  0
   12.3367   38.3598   34.7454 H   0  0  0  0  0  0  0  0  0  0  0  0
   16.7576   34.1795   32.4622 H   0  0  0  0  0  0  0  0  0  0  0  0
   15.3532   35.7352   37.5144 H   0  0  0  0  0  0  0  0  0  0  0  0
   16.6368   34.5316   37.1418 H   0  0  0  0  0  0  0  0  0  0  0  0
  1  2  2  0
  1  3  1  0
  3  4  1  0
  4  5  1  0
  6  1  1  0
  7  6  1  0
  6  8  1  0
  8  9  1  0
  9 10  1  0
  9 11  2  0
 10 12  1  0
 12 13  1  0
 13 14  2  0
 15 13  1  0
 14 16  1  0
 17 15  2  0
 16 18  2  0
 18 17  1  0
  4 19  2  0
  4 20  1  0
 21 20  1  0
 21 22  1  0
 22 23  1  0
 22 24  1  0
 23 25  1  0
 24 26  1  0
 24 27  1  0
 27 25  1  0
 25 28  1  0
 27 29  1  0
 30 28  1  0
 31 28  1  0
 32 30  2  0
 30 33  1  0
 34 31  2  0
 35 32  1  0
 33 36  2  0
 33 34  1  0
 37 35  2  0
 37 36  1  0
 36 38  1  0
  6 39  1  6
  7 40  1  0
  7 41  1  0
  8 42  1  0
  8 43  1  0
 12 44  1  0
 12 45  1  0
 14 46  1  0
 15 47  1  0
 16 48  1  0
 17 49  1  0
 18 50  1  0
 21 51  1  0
 21 52  1  0
 22 53  1  0
 24 54  1  0
 25 55  1  0
 26 56  1  0
 27 57  1  0
 29 58  1  0
 31 59  1  0
 35 60  1  0
 38 61  1  0
 38 62  1  0
M  CHG  1   5  -1
M  END
>  <EmbedRMS>  (173) 
0.08679709058994303

$$$$

     RDKit          3D

 62 65  0  0  0  0  0  0  0  0999 V2000
   10.2829   43.7754   33.8077 C   0  0  0  0  0  0  0  0  0  0  0  0
   11.4086   43.5914   34.3578 O   0  0  0  0  0  0  0  0  0  0  0  0
    9.3666   42.7319   33.7015 O   0  0  0  0  0  0  0  0  0  0  0  0
    9.8860   41.2347   34.2842 P   0  0  0  0  0  5  0  0  0  0  0  0
   10.3669   41.4696   35.8746 O   0  0  0  0  0  1  0  0  0  0  0  0
    9.9539   45.1112   33.2430 C   0  0  2  0  0  0  0  0  0  0  0  0
   11.0723   46.0271   33.4849 N   0  0  0  0  0  0  0  0  0  0  0  0
    8.6387   45.6434   33.8512 C   0  0  0  0  0  0  0  0  0  0  0  0
    8.2431   46.9448   33.2279 C   0  0  0  0  0  0  0  0  0  0  0  0
    7.7927   46.9612   31.9036 O   0  0  0  0  0  0  0  0  0  0  0  0
    8.3592   48.0161   33.8836 O   0  0  0  0  0  0  0  0  0  0  0  0
    7.6096   48.1622   31.1582 C   0  0  0  0  0  0  0  0  0  0  0  0
    8.9431   48.7862   30.8480 C   0  0  0  0  0  0  0  0  0  0  0  0
    9.3027   50.0247   31.4053 C   0  0  0  0  0  0  0  0  0  0  0  0
    9.8581   48.1088   30.0256 C   0  0  0  0  0  0  0  0  0  0  0  0
   10.5581   50.5790   31.1361 C   0  0  0  0  0  0  0  0  0  0  0  0
   11.1126   48.6660   29.7599 C   0  0  0  0  0  0  0  0  0  0  0  0
   11.4622   49.9005   30.3140 C   0  0  0  0  0  0  0  0  0  0  0  0
    8.8085   40.1916   34.2086 O   0  0  0  0  0  0  0  0  0  0  0  0
   11.2376   40.7908   33.3679 O   0  0  0  0  0  0  0  0  0  0  0  0
   10.9159   40.6891   31.9949 C   0  0  0  0  0  0  0  0  0  0  0  0
   11.5251   39.3873   31.4365 C   0  0  0  0  0  0  0  0  0  0  0  0
   12.7486   39.0880   32.0804 O   0  0  0  0  0  0  0  0  0  0  0  0
   10.6100   38.1910   31.6470 C   0  0  0  0  0  0  0  0  0  0  0  0
   12.9348   37.6808   32.0292 C   0  0  0  0  0  0  0  0  0  0  0  0
    9.6126   38.0874   30.6547 O   0  0  0  0  0  0  0  0  0  0  0  0
   11.5767   37.0133   31.7026 C   0  0  0  0  0  0  0  0  0  0  0  0
   13.4901   37.2165   33.3236 N   0  0  0  0  0  0  0  0  0  0  0  0
   11.6321   36.3231   30.4741 O   0  0  0  0  0  0  0  0  0  0  0  0
   14.4763   36.3266   33.5727 C   0  0  0  0  0  0  0  0  0  0  0  0
   13.1179   37.6307   34.5689 C   0  0  0  0  0  0  0  0  0  0  0  0
   15.2065   35.6135   32.6738 N   0  0  0  0  0  0  0  0  0  0  0  0
   14.6736   36.2272   34.9182 C   0  0  0  0  0  0  0  0  0  0  0  0
   13.8228   37.0453   35.5783 N   0  0  0  0  0  0  0  0  0  0  0  0
   16.1640   34.7592   33.1547 C   0  0  0  0  0  0  0  0  0  0  0  0
   15.6518   35.3491   35.4131 C   0  0  0  0  0  0  0  0  0  0  0  0
   16.3795   34.6309   34.5042 N   0  0  0  0  0  0  0  0  0  0  0  0
   15.9005   35.1933   36.8089 N   0  0  0  0  0  0  0  0  0  0  0  0
    9.8235   44.9843   32.1448 H   0  0  0  0  0  0  0  0  0  0  0  0
   10.9455   46.8826   32.8965 H   0  0  0  0  0  0  0  0  0  0  0  0
   11.0720   46.3303   34.4868 H   0  0  0  0  0  0  0  0  0  0  0  0
    8.7459   45.7656   34.9520 H   0  0  0  0  0  0  0  0  0  0  0  0
    7.8193   44.9142   33.6709 H   0  0  0  0  0  0  0  0  0  0  0  0
    6.9491   48.8595   31.7190 H   0  0  0  0  0  0  0  0  0  0  0  0
    7.0977   47.9146   30.2046 H   0  0  0  0  0  0  0  0  0  0  0  0
    8.6160   50.5581   32.0507 H   0  0  0  0  0  0  0  0  0  0  0  0
    9.6012   47.1476   29.5975 H   0  0  0  0  0  0  0  0  0  0  0  0
   10.8314   51.5333   31.5674 H   0  0  0  0  0  0  0  0  0  0  0  0
   11.8148   48.1394   29.1266 H   0  0  0  0  0  0  0  0  0  0  0  0
   12.4341   50.3301   30.1083 H   0  0  0  0  0  0  0  0  0  0  0  0
   11.3841   41.5507   31.4726 H   0  0  0  0  0  0  0  0  0  0  0  0
    9.8258   40.7203   31.7579 H   0  0  0  0  0  0  0  0  0  0  0  0
   11.7273   39.5286   30.3502 H   0  0  0  0  0  0  0  0  0  0  0  0
   10.1122   38.2732   32.6390 H   0  0  0  0  0  0  0  0  0  0  0  0
   13.6685   37.4592   31.2224 H   0  0  0  0  0  0  0  0  0  0  0  0
   10.0514   38.1110   29.7648 H   0  0  0  0  0  0  0  0  0  0  0  0
   11.2801   36.3129   32.5195 H   0  0  0  0  0  0  0  0  0  0  0  0
   10.8625   35.6961   30.4645 H   0  0  0  0  0  0  0  0  0  0  0  0
   12.3356   38.3581   34.7445 H   0  0  0  0  0  0  0  0  0  0  0  0
   16.7574   34.1787   32.4619 H   0  0  0  0  0  0  0  0  0  0  0  0
   16.6364   34.5315   37.1415 H   0  0  0  0  0  0  0  0  0  0  0  0
   15.3531   35.7355   37.5138 H   0  0  0  0  0  0  0  0  0  0  0  0
  1  2  2  0
  1  3  1  0
  3  4  1  0
  4  5  1  0
  6  1  1  0
  7  6  1  0
  6  8  1  0
  8  9  1  0
  9 10  1  0
  9 11  2  0
 10 12  1  0
 12 13  1  0
 13 14  2  0
 15 13  1  0
 14 16  1  0
 17 15  2  0
 16 18  2  0
 18 17  1  0
  4 19  2  0
  4 20  1  0
 21 20  1  0
 21 22  1  0
 22 23  1  0
 22 24  1  0
 23 25  1  0
 24 26  1  0
 24 27  1  0
 27 25  1  0
 25 28  1  0
 27 29  1  0
 30 28  1  0
 31 28  1  0
 32 30  2  0
 30 33  1  0
 34 31  2  0
 35 32  1  0
 33 36  2  0
 33 34  1  0
 37 35  2  0
 37 36  1  0
 36 38  1  0
  6 39  1  6
  7 40  1  0
  7 41  1  0
  8 42  1  0
  8 43  1  0
 12 44  1  0
 12 45  1  0
 14 46  1  0
 15 47  1  0
 16 48  1  0
 17 49  1  0
 18 50  1  0
 21 51  1  0
 21 52  1  0
 22 53  1  0
 24 54  1  0
 25 55  1  0
 26 56  1  0
 27 57  1  0
 29 58  1  0
 31 59  1  0
 35 60  1  0
 38 61  1  0
 38 62  1  0
M  CHG  1   5  -1
M  END
>  <EmbedRMS>  (174) 
0.08783771426850273

$$$$

     RDKit          3D

 62 65  0  0  0  0  0  0  0  0999 V2000
   10.2828   43.7756   33.8077 C   0  0  0  0  0  0  0  0  0  0  0  0
   11.4085   43.5913   34.3576 O   0  0  0  0  0  0  0  0  0  0  0  0
    9.3664   42.7321   33.7017 O   0  0  0  0  0  0  0  0  0  0  0  0
    9.8859   41.2348   34.2841 P   0  0  0  0  0  5  0  0  0  0  0  0
   10.3672   41.4695   35.8744 O   0  0  0  0  0  1  0  0  0  0  0  0
    9.9535   45.1119   33.2436 C   0  0  2  0  0  0  0  0  0  0  0  0
   11.0726   46.0269   33.4846 N   0  0  0  0  0  0  0  0  0  0  0  0
    8.6408   45.6450   33.8553 C   0  0  0  0  0  0  0  0  0  0  0  0
    8.2203   46.9306   33.2139 C   0  0  0  0  0  0  0  0  0  0  0  0
    7.6544   46.9064   31.9344 O   0  0  0  0  0  0  0  0  0  0  0  0
    8.4087   48.0228   33.8161 O   0  0  0  0  0  0  0  0  0  0  0  0
    7.2108   48.0776   31.2527 C   0  0  0  0  0  0  0  0  0  0  0  0
    5.9537   48.6090   31.8855 C   0  0  0  0  0  0  0  0  0  0  0  0
    4.7612   47.8722   31.8005 C   0  0  0  0  0  0  0  0  0  0  0  0
    5.9635   49.8262   32.5872 C   0  0  0  0  0  0  0  0  0  0  0  0
    3.5931   48.3510   32.4022 C   0  0  0  0  0  0  0  0  0  0  0  0
    4.7932   50.3014   33.1876 C   0  0  0  0  0  0  0  0  0  0  0  0
    3.6089   49.5650   33.0946 C   0  0  0  0  0  0  0  0  0  0  0  0
    8.8084   40.1918   34.2087 O   0  0  0  0  0  0  0  0  0  0  0  0
   11.2371   40.7919   33.3667 O   0  0  0  0  0  0  0  0  0  0  0  0
   10.9133   40.6862   31.9944 C   0  0  0  0  0  0  0  0  0  0  0  0
   11.5169   39.3798   31.4410 C   0  0  0  0  0  0  0  0  0  0  0  0
   12.7486   39.0887   32.0764 O   0  0  0  0  0  0  0  0  0  0  0  0
   10.6051   38.1876   31.6659 C   0  0  0  0  0  0  0  0  0  0  0  0
   12.9411   37.6829   32.0278 C   0  0  0  0  0  0  0  0  0  0  0  0
    9.6358   38.0930   30.6502 O   0  0  0  0  0  0  0  0  0  0  0  0
   11.5827   37.0179   31.6936 C   0  0  0  0  0  0  0  0  0  0  0  0
   13.4909   37.2177   33.3239 N   0  0  0  0  0  0  0  0  0  0  0  0
   11.6141   36.3180   30.4675 O   0  0  0  0  0  0  0  0  0  0  0  0
   14.4762   36.3270   33.5733 C   0  0  0  0  0  0  0  0  0  0  0  0
   13.1179   37.6316   34.5689 C   0  0  0  0  0  0  0  0  0  0  0  0
   15.2067   35.6140   32.6743 N   0  0  0  0  0  0  0  0  0  0  0  0
   14.6731   36.2272   34.9186 C   0  0  0  0  0  0  0  0  0  0  0  0
   13.8223   37.0456   35.5785 N   0  0  0  0  0  0  0  0  0  0  0  0
   16.1639   34.7595   33.1550 C   0  0  0  0  0  0  0  0  0  0  0  0
   15.6515   35.3491   35.4134 C   0  0  0  0  0  0  0  0  0  0  0  0
   16.3793   34.6310   34.5045 N   0  0  0  0  0  0  0  0  0  0  0  0
   15.9003   35.1933   36.8093 N   0  0  0  0  0  0  0  0  0  0  0  0
    9.8205   44.9853   32.1459 H   0  0  0  0  0  0  0  0  0  0  0  0
   10.9393   46.8872   32.9053 H   0  0  0  0  0  0  0  0  0  0  0  0
   11.0801   46.3213   34.4891 H   0  0  0  0  0  0  0  0  0  0  0  0
    8.7578   45.7889   34.9523 H   0  0  0  0  0  0  0  0  0  0  0  0
    7.8262   44.9047   33.6999 H   0  0  0  0  0  0  0  0  0  0  0  0
    8.0200   48.8405   31.2441 H   0  0  0  0  0  0  0  0  0  0  0  0
    6.9973   47.8132   30.1955 H   0  0  0  0  0  0  0  0  0  0  0  0
    4.7382   46.9279   31.2705 H   0  0  0  0  0  0  0  0  0  0  0  0
    6.8746   50.4053   32.6719 H   0  0  0  0  0  0  0  0  0  0  0  0
    2.6762   47.7801   32.3331 H   0  0  0  0  0  0  0  0  0  0  0  0
    4.8049   51.2399   33.7266 H   0  0  0  0  0  0  0  0  0  0  0  0
    2.7043   49.9340   33.5605 H   0  0  0  0  0  0  0  0  0  0  0  0
   11.3848   41.5434   31.4679 H   0  0  0  0  0  0  0  0  0  0  0  0
    9.8231   40.7208   31.7583 H   0  0  0  0  0  0  0  0  0  0  0  0
   11.6994   39.5064   30.3488 H   0  0  0  0  0  0  0  0  0  0  0  0
   10.1120   38.2722   32.6632 H   0  0  0  0  0  0  0  0  0  0  0  0
   13.6816   37.4634   31.2269 H   0  0  0  0  0  0  0  0  0  0  0  0
    9.0036   37.3828   30.9349 H   0  0  0  0  0  0  0  0  0  0  0  0
   11.2846   36.3041   32.4928 H   0  0  0  0  0  0  0  0  0  0  0  0
   11.8850   36.9590   29.7588 H   0  0  0  0  0  0  0  0  0  0  0  0
   12.3363   38.3599   34.7441 H   0  0  0  0  0  0  0  0  0  0  0  0
   16.7574   34.1791   32.4623 H   0  0  0  0  0  0  0  0  0  0  0  0
   16.6363   34.5316   37.1417 H   0  0  0  0  0  0  0  0  0  0  0  0
   15.3529   35.7355   37.5141 H   0  0  0  0  0  0  0  0  0  0  0  0
  1  2  2  0
  1  3  1  0
  3  4  1  0
  4  5  1  0
  6  1  1  0
  7  6  1  0
  6  8  1  0
  8  9  1  0
  9 10  1  0
  9 11  2  0
 10 12  1  0
 12 13  1  0
 13 14  2  0
 15 13  1  0
 14 16  1  0
 17 15  2  0
 16 18  2  0
 18 17  1  0
  4 19  2  0
  4 20  1  0
 21 20  1  0
 21 22  1  0
 22 23  1  0
 22 24  1  0
 23 25  1  0
 24 26  1  0
 24 27  1  0
 27 25  1  0
 25 28  1  0
 27 29  1  0
 30 28  1  0
 31 28  1  0
 32 30  2  0
 30 33  1  0
 34 31  2  0
 35 32  1  0
 33 36  2  0
 33 34  1  0
 37 35  2  0
 37 36  1  0
 36 38  1  0
  6 39  1  6
  7 40  1  0
  7 41  1  0
  8 42  1  0
  8 43  1  0
 12 44  1  0
 12 45  1  0
 14 46  1  0
 15 47  1  0
 16 48  1  0
 17 49  1  0
 18 50  1  0
 21 51  1  0
 21 52  1  0
 22 53  1  0
 24 54  1  0
 25 55  1  0
 26 56  1  0
 27 57  1  0
 29 58  1  0
 31 59  1  0
 35 60  1  0
 38 61  1  0
 38 62  1  0
M  CHG  1   5  -1
M  END
>  <EmbedRMS>  (175) 
0.087566305985386

$$$$

     RDKit          3D

 62 65  0  0  0  0  0  0  0  0999 V2000
   10.2859   43.7721   33.8048 C   0  0  0  0  0  0  0  0  0  0  0  0
   11.4084   43.5885   34.3611 O   0  0  0  0  0  0  0  0  0  0  0  0
    9.3672   42.7311   33.6995 O   0  0  0  0  0  0  0  0  0  0  0  0
    9.8850   41.2344   34.2844 P   0  0  0  0  0  5  0  0  0  0  0  0
   10.3655   41.4703   35.8749 O   0  0  0  0  0  1  0  0  0  0  0  0
    9.9530   45.1148   33.2532 C   0  0  2  0  0  0  0  0  0  0  0  0
   11.0714   46.0332   33.4767 N   0  0  0  0  0  0  0  0  0  0  0  0
    8.6598   45.6658   33.8881 C   0  0  0  0  0  0  0  0  0  0  0  0
    8.7913   45.8606   35.3696 C   0  0  0  0  0  0  0  0  0  0  0  0
    9.4210   47.0084   35.8580 O   0  0  0  0  0  0  0  0  0  0  0  0
    8.3685   44.9725   36.1595 O   0  0  0  0  0  0  0  0  0  0  0  0
    9.6326   47.2369   37.2463 C   0  0  0  0  0  0  0  0  0  0  0  0
   10.3678   48.5322   37.4257 C   0  0  0  0  0  0  0  0  0  0  0  0
   11.7687   48.5672   37.3306 C   0  0  0  0  0  0  0  0  0  0  0  0
    9.6600   49.7299   37.6203 C   0  0  0  0  0  0  0  0  0  0  0  0
   12.4528   49.7802   37.4584 C   0  0  0  0  0  0  0  0  0  0  0  0
   10.3479   50.9409   37.7477 C   0  0  0  0  0  0  0  0  0  0  0  0
   11.7432   50.9658   37.6693 C   0  0  0  0  0  0  0  0  0  0  0  0
    8.8077   40.1913   34.2088 O   0  0  0  0  0  0  0  0  0  0  0  0
   11.2369   40.7903   33.3690 O   0  0  0  0  0  0  0  0  0  0  0  0
   10.9155   40.6897   31.9960 C   0  0  0  0  0  0  0  0  0  0  0  0
   11.5270   39.3898   31.4374 C   0  0  0  0  0  0  0  0  0  0  0  0
   12.7508   39.0916   32.0838 O   0  0  0  0  0  0  0  0  0  0  0  0
   10.6122   38.1916   31.6452 C   0  0  0  0  0  0  0  0  0  0  0  0
   12.9429   37.6852   32.0295 C   0  0  0  0  0  0  0  0  0  0  0  0
    9.6070   38.0858   30.6603 O   0  0  0  0  0  0  0  0  0  0  0  0
   11.5845   37.0186   31.6879 C   0  0  0  0  0  0  0  0  0  0  0  0
   13.4899   37.2163   33.3250 N   0  0  0  0  0  0  0  0  0  0  0  0
   11.6201   36.3062   30.4693 O   0  0  0  0  0  0  0  0  0  0  0  0
   14.4759   36.3263   33.5738 C   0  0  0  0  0  0  0  0  0  0  0  0
   13.1176   37.6307   34.5699 C   0  0  0  0  0  0  0  0  0  0  0  0
   15.2065   35.6139   32.6746 N   0  0  0  0  0  0  0  0  0  0  0  0
   14.6731   36.2267   34.9191 C   0  0  0  0  0  0  0  0  0  0  0  0
   13.8224   37.0450   35.5792 N   0  0  0  0  0  0  0  0  0  0  0  0
   16.1640   34.7596   33.1551 C   0  0  0  0  0  0  0  0  0  0  0  0
   15.6517   35.3489   35.4136 C   0  0  0  0  0  0  0  0  0  0  0  0
   16.3795   34.6310   34.5046 N   0  0  0  0  0  0  0  0  0  0  0  0
   15.9006   35.1931   36.8094 N   0  0  0  0  0  0  0  0  0  0  0  0
    9.7838   45.0052   32.1583 H   0  0  0  0  0  0  0  0  0  0  0  0
   10.8103   46.9720   33.0960 H   0  0  0  0  0  0  0  0  0  0  0  0
   11.8828   45.7128   32.8982 H   0  0  0  0  0  0  0  0  0  0  0  0
    8.4062   46.6414   33.4202 H   0  0  0  0  0  0  0  0  0  0  0  0
    7.8131   44.9767   33.6752 H   0  0  0  0  0  0  0  0  0  0  0  0
    8.6543   47.2705   37.7741 H   0  0  0  0  0  0  0  0  0  0  0  0
   10.2273   46.4017   37.6775 H   0  0  0  0  0  0  0  0  0  0  0  0
   12.3293   47.6568   37.1566 H   0  0  0  0  0  0  0  0  0  0  0  0
    8.5782   49.7262   37.6725 H   0  0  0  0  0  0  0  0  0  0  0  0
   13.5328   49.8017   37.3897 H   0  0  0  0  0  0  0  0  0  0  0  0
    9.7990   51.8607   37.9032 H   0  0  0  0  0  0  0  0  0  0  0  0
   12.2740   51.9040   37.7666 H   0  0  0  0  0  0  0  0  0  0  0  0
   11.3825   41.5526   31.4746 H   0  0  0  0  0  0  0  0  0  0  0  0
    9.8254   40.7190   31.7587 H   0  0  0  0  0  0  0  0  0  0  0  0
   11.7318   39.5338   30.3520 H   0  0  0  0  0  0  0  0  0  0  0  0
   10.1215   38.2682   32.6413 H   0  0  0  0  0  0  0  0  0  0  0  0
   13.6882   37.4708   31.2319 H   0  0  0  0  0  0  0  0  0  0  0  0
   10.0256   38.1751   29.7656 H   0  0  0  0  0  0  0  0  0  0  0  0
   11.2796   36.3123   32.4915 H   0  0  0  0  0  0  0  0  0  0  0  0
   11.9872   36.9099   29.7714 H   0  0  0  0  0  0  0  0  0  0  0  0
   12.3365   38.3596   34.7453 H   0  0  0  0  0  0  0  0  0  0  0  0
   16.7576   34.1794   32.4622 H   0  0  0  0  0  0  0  0  0  0  0  0
   15.3532   35.7351   37.5143 H   0  0  0  0  0  0  0  0  0  0  0  0
   16.6368   34.5316   37.1418 H   0  0  0  0  0  0  0  0  0  0  0  0
  1  2  2  0
  1  3  1  0
  3  4  1  0
  4  5  1  0
  6  1  1  0
  7  6  1  0
  6  8  1  0
  8  9  1  0
  9 10  1  0
  9 11  2  0
 10 12  1  0
 12 13  1  0
 13 14  2  0
 15 13  1  0
 14 16  1  0
 17 15  2  0
 16 18  2  0
 18 17  1  0
  4 19  2  0
  4 20  1  0
 21 20  1  0
 21 22  1  0
 22 23  1  0
 22 24  1  0
 23 25  1  0
 24 26  1  0
 24 27  1  0
 27 25  1  0
 25 28  1  0
 27 29  1  0
 30 28  1  0
 31 28  1  0
 32 30  2  0
 30 33  1  0
 34 31  2  0
 35 32  1  0
 33 36  2  0
 33 34  1  0
 37 35  2  0
 37 36  1  0
 36 38  1  0
  6 39  1  6
  7 40  1  0
  7 41  1  0
  8 42  1  0
  8 43  1  0
 12 44  1  0
 12 45  1  0
 14 46  1  0
 15 47  1  0
 16 48  1  0
 17 49  1  0
 18 50  1  0
 21 51  1  0
 21 52  1  0
 22 53  1  0
 24 54  1  0
 25 55  1  0
 26 56  1  0
 27 57  1  0
 29 58  1  0
 31 59  1  0
 35 60  1  0
 38 61  1  0
 38 62  1  0
M  CHG  1   5  -1
M  END
>  <EmbedRMS>  (176) 
0.0870006292667732

$$$$

     RDKit          3D

 62 65  0  0  0  0  0  0  0  0999 V2000
   10.2838   43.7719   33.8129 C   0  0  0  0  0  0  0  0  0  0  0  0
   11.4075   43.5833   34.3651 O   0  0  0  0  0  0  0  0  0  0  0  0
    9.3690   42.7284   33.7013 O   0  0  0  0  0  0  0  0  0  0  0  0
    9.8859   41.2315   34.2833 P   0  0  0  0  0  5  0  0  0  0  0  0
   10.3652   41.4665   35.8743 O   0  0  0  0  0  1  0  0  0  0  0  0
    9.9621   45.1148   33.2414 C   0  0  2  0  0  0  0  0  0  0  0  0
   11.0665   46.0472   33.4758 N   0  0  0  0  0  0  0  0  0  0  0  0
    8.6672   45.7002   33.8410 C   0  0  0  0  0  0  0  0  0  0  0  0
    7.4410   44.9149   33.4729 C   0  0  0  0  0  0  0  0  0  0  0  0
    7.3482   44.3152   32.2134 O   0  0  0  0  0  0  0  0  0  0  0  0
    6.4875   44.8300   34.2940 O   0  0  0  0  0  0  0  0  0  0  0  0
    6.2449   43.5077   31.8213 C   0  0  0  0  0  0  0  0  0  0  0  0
    6.5391   42.8988   30.4825 C   0  0  0  0  0  0  0  0  0  0  0  0
    7.1738   41.6484   30.3975 C   0  0  0  0  0  0  0  0  0  0  0  0
    6.2586   43.6110   29.3051 C   0  0  0  0  0  0  0  0  0  0  0  0
    7.5002   41.1086   29.1493 C   0  0  0  0  0  0  0  0  0  0  0  0
    6.5843   43.0665   28.0589 C   0  0  0  0  0  0  0  0  0  0  0  0
    7.2035   41.8158   27.9810 C   0  0  0  0  0  0  0  0  0  0  0  0
    8.8074   40.1899   34.2059 O   0  0  0  0  0  0  0  0  0  0  0  0
   11.2387   40.7893   33.3679 O   0  0  0  0  0  0  0  0  0  0  0  0
   10.9194   40.6887   31.9942 C   0  0  0  0  0  0  0  0  0  0  0  0
   11.5170   39.3796   31.4393 C   0  0  0  0  0  0  0  0  0  0  0  0
   12.7481   39.0860   32.0725 O   0  0  0  0  0  0  0  0  0  0  0  0
   10.6036   38.1889   31.6681 C   0  0  0  0  0  0  0  0  0  0  0  0
   12.9338   37.6795   32.0276 C   0  0  0  0  0  0  0  0  0  0  0  0
    9.6384   38.0788   30.6486 O   0  0  0  0  0  0  0  0  0  0  0  0
   11.5742   37.0152   31.7054 C   0  0  0  0  0  0  0  0  0  0  0  0
   13.4904   37.2179   33.3229 N   0  0  0  0  0  0  0  0  0  0  0  0
   11.6207   36.3383   30.4687 O   0  0  0  0  0  0  0  0  0  0  0  0
   14.4761   36.3273   33.5724 C   0  0  0  0  0  0  0  0  0  0  0  0
   13.1179   37.6317   34.5682 C   0  0  0  0  0  0  0  0  0  0  0  0
   15.2064   35.6139   32.6737 N   0  0  0  0  0  0  0  0  0  0  0  0
   14.6733   36.2278   34.9179 C   0  0  0  0  0  0  0  0  0  0  0  0
   13.8225   37.0460   35.5778 N   0  0  0  0  0  0  0  0  0  0  0  0
   16.1636   34.7594   33.1546 C   0  0  0  0  0  0  0  0  0  0  0  0
   15.6515   35.3494   35.4129 C   0  0  0  0  0  0  0  0  0  0  0  0
   16.3791   34.6311   34.5041 N   0  0  0  0  0  0  0  0  0  0  0  0
   15.9001   35.1936   36.8088 N   0  0  0  0  0  0  0  0  0  0  0  0
    9.8351   45.0037   32.1419 H   0  0  0  0  0  0  0  0  0  0  0  0
   11.2670   46.1201   34.5009 H   0  0  0  0  0  0  0  0  0  0  0  0
   11.9270   45.6983   32.9928 H   0  0  0  0  0  0  0  0  0  0  0  0
    8.5304   46.7374   33.4662 H   0  0  0  0  0  0  0  0  0  0  0  0
    8.7596   45.7501   34.9487 H   0  0  0  0  0  0  0  0  0  0  0  0
    6.0772   42.7071   32.5753 H   0  0  0  0  0  0  0  0  0  0  0  0
    5.3253   44.1304   31.7686 H   0  0  0  0  0  0  0  0  0  0  0  0
    7.4156   41.0940   31.2957 H   0  0  0  0  0  0  0  0  0  0  0  0
    5.7920   44.5872   29.3528 H   0  0  0  0  0  0  0  0  0  0  0  0
    7.9863   40.1442   29.0866 H   0  0  0  0  0  0  0  0  0  0  0  0
    6.3622   43.6167   27.1537 H   0  0  0  0  0  0  0  0  0  0  0  0
    7.4578   41.3971   27.0159 H   0  0  0  0  0  0  0  0  0  0  0  0
   11.3994   41.5435   31.4717 H   0  0  0  0  0  0  0  0  0  0  0  0
    9.8324   40.7364   31.7545 H   0  0  0  0  0  0  0  0  0  0  0  0
   11.6970   39.5033   30.3464 H   0  0  0  0  0  0  0  0  0  0  0  0
   10.1132   38.2630   32.6686 H   0  0  0  0  0  0  0  0  0  0  0  0
   13.6658   37.4536   31.2205 H   0  0  0  0  0  0  0  0  0  0  0  0
    8.8735   38.6509   30.9172 H   0  0  0  0  0  0  0  0  0  0  0  0
   11.2853   36.3050   32.5167 H   0  0  0  0  0  0  0  0  0  0  0  0
   10.8509   35.7115   30.4574 H   0  0  0  0  0  0  0  0  0  0  0  0
   12.3353   38.3589   34.7437 H   0  0  0  0  0  0  0  0  0  0  0  0
   16.7570   34.1788   32.4619 H   0  0  0  0  0  0  0  0  0  0  0  0
   16.6359   34.5317   37.1413 H   0  0  0  0  0  0  0  0  0  0  0  0
   15.3528   35.7359   37.5136 H   0  0  0  0  0  0  0  0  0  0  0  0
  1  2  2  0
  1  3  1  0
  3  4  1  0
  4  5  1  0
  6  1  1  0
  7  6  1  0
  6  8  1  0
  8  9  1  0
  9 10  1  0
  9 11  2  0
 10 12  1  0
 12 13  1  0
 13 14  2  0
 15 13  1  0
 14 16  1  0
 17 15  2  0
 16 18  2  0
 18 17  1  0
  4 19  2  0
  4 20  1  0
 21 20  1  0
 21 22  1  0
 22 23  1  0
 22 24  1  0
 23 25  1  0
 24 26  1  0
 24 27  1  0
 27 25  1  0
 25 28  1  0
 27 29  1  0
 30 28  1  0
 31 28  1  0
 32 30  2  0
 30 33  1  0
 34 31  2  0
 35 32  1  0
 33 36  2  0
 33 34  1  0
 37 35  2  0
 37 36  1  0
 36 38  1  0
  6 39  1  6
  7 40  1  0
  7 41  1  0
  8 42  1  0
  8 43  1  0
 12 44  1  0
 12 45  1  0
 14 46  1  0
 15 47  1  0
 16 48  1  0
 17 49  1  0
 18 50  1  0
 21 51  1  0
 21 52  1  0
 22 53  1  0
 24 54  1  0
 25 55  1  0
 26 56  1  0
 27 57  1  0
 29 58  1  0
 31 59  1  0
 35 60  1  0
 38 61  1  0
 38 62  1  0
M  CHG  1   5  -1
M  END
>  <EmbedRMS>  (177) 
0.09017240675596973

$$$$

     RDKit          3D

 62 65  0  0  0  0  0  0  0  0999 V2000
   10.2889   43.7682   33.8057 C   0  0  0  0  0  0  0  0  0  0  0  0
   11.4118   43.5793   34.3590 O   0  0  0  0  0  0  0  0  0  0  0  0
    9.3667   42.7304   33.7016 O   0  0  0  0  0  0  0  0  0  0  0  0
    9.8834   41.2330   34.2854 P   0  0  0  0  0  5  0  0  0  0  0  0
   10.3668   41.4675   35.8744 O   0  0  0  0  0  1  0  0  0  0  0  0
    9.9659   45.1111   33.2423 C   0  0  2  0  0  0  0  0  0  0  0  0
   11.0590   46.0562   33.4829 N   0  0  0  0  0  0  0  0  0  0  0  0
    8.6375   45.6659   33.7925 C   0  0  0  0  0  0  0  0  0  0  0  0
    8.6414   45.8139   35.2860 C   0  0  0  0  0  0  0  0  0  0  0  0
    8.5583   44.6719   36.0865 O   0  0  0  0  0  0  0  0  0  0  0  0
    8.7403   46.9591   35.8053 O   0  0  0  0  0  0  0  0  0  0  0  0
    8.5433   44.7205   37.5082 C   0  0  0  0  0  0  0  0  0  0  0  0
    8.5521   43.3195   38.0472 C   0  0  0  0  0  0  0  0  0  0  0  0
    9.6570   42.8336   38.7669 C   0  0  0  0  0  0  0  0  0  0  0  0
    7.4630   42.4678   37.7997 C   0  0  0  0  0  0  0  0  0  0  0  0
    9.6670   41.5160   39.2356 C   0  0  0  0  0  0  0  0  0  0  0  0
    7.4783   41.1504   38.2680 C   0  0  0  0  0  0  0  0  0  0  0  0
    8.5791   40.6749   38.9857 C   0  0  0  0  0  0  0  0  0  0  0  0
    8.8056   40.1906   34.2103 O   0  0  0  0  0  0  0  0  0  0  0  0
   11.2353   40.7891   33.3696 O   0  0  0  0  0  0  0  0  0  0  0  0
   10.9146   40.6895   31.9964 C   0  0  0  0  0  0  0  0  0  0  0  0
   11.5266   39.3899   31.4375 C   0  0  0  0  0  0  0  0  0  0  0  0
   12.7505   39.0918   32.0840 O   0  0  0  0  0  0  0  0  0  0  0  0
   10.6120   38.1915   31.6452 C   0  0  0  0  0  0  0  0  0  0  0  0
   12.9428   37.6854   32.0296 C   0  0  0  0  0  0  0  0  0  0  0  0
    9.6069   38.0857   30.6602 O   0  0  0  0  0  0  0  0  0  0  0  0
   11.5845   37.0186   31.6880 C   0  0  0  0  0  0  0  0  0  0  0  0
   13.4898   37.2164   33.3250 N   0  0  0  0  0  0  0  0  0  0  0  0
   11.6202   36.3063   30.4693 O   0  0  0  0  0  0  0  0  0  0  0  0
   14.4758   36.3264   33.5739 C   0  0  0  0  0  0  0  0  0  0  0  0
   13.1175   37.6308   34.5700 C   0  0  0  0  0  0  0  0  0  0  0  0
   15.2064   35.6140   32.6746 N   0  0  0  0  0  0  0  0  0  0  0  0
   14.6731   36.2268   34.9191 C   0  0  0  0  0  0  0  0  0  0  0  0
   13.8224   37.0450   35.5793 N   0  0  0  0  0  0  0  0  0  0  0  0
   16.1639   34.7596   33.1551 C   0  0  0  0  0  0  0  0  0  0  0  0
   15.6517   35.3489   35.4136 C   0  0  0  0  0  0  0  0  0  0  0  0
   16.3794   34.6310   34.5046 N   0  0  0  0  0  0  0  0  0  0  0  0
   15.9006   35.1931   36.8094 N   0  0  0  0  0  0  0  0  0  0  0  0
    9.8469   44.9913   32.1430 H   0  0  0  0  0  0  0  0  0  0  0  0
   11.2784   46.1086   34.5050 H   0  0  0  0  0  0  0  0  0  0  0  0
   11.9168   45.7266   32.9821 H   0  0  0  0  0  0  0  0  0  0  0  0
    8.4319   46.6517   33.3207 H   0  0  0  0  0  0  0  0  0  0  0  0
    7.8048   44.9881   33.5051 H   0  0  0  0  0  0  0  0  0  0  0  0
    7.6256   45.2437   37.8538 H   0  0  0  0  0  0  0  0  0  0  0  0
    9.4277   45.2889   37.8714 H   0  0  0  0  0  0  0  0  0  0  0  0
   10.5119   43.4696   38.9602 H   0  0  0  0  0  0  0  0  0  0  0  0
    6.6073   42.8230   37.2386 H   0  0  0  0  0  0  0  0  0  0  0  0
   10.5205   41.1454   39.7885 H   0  0  0  0  0  0  0  0  0  0  0  0
    6.6378   40.4973   38.0721 H   0  0  0  0  0  0  0  0  0  0  0  0
    8.5901   39.6545   39.3462 H   0  0  0  0  0  0  0  0  0  0  0  0
   11.3817   41.5527   31.4758 H   0  0  0  0  0  0  0  0  0  0  0  0
    9.8245   40.7187   31.7590 H   0  0  0  0  0  0  0  0  0  0  0  0
   11.7314   39.5341   30.3522 H   0  0  0  0  0  0  0  0  0  0  0  0
   10.1212   38.2679   32.6413 H   0  0  0  0  0  0  0  0  0  0  0  0
   13.6881   37.4710   31.2320 H   0  0  0  0  0  0  0  0  0  0  0  0
   10.0256   38.1750   29.7656 H   0  0  0  0  0  0  0  0  0  0  0  0
   11.2796   36.3123   32.4915 H   0  0  0  0  0  0  0  0  0  0  0  0
   11.9872   36.9100   29.7715 H   0  0  0  0  0  0  0  0  0  0  0  0
   12.3364   38.3596   34.7455 H   0  0  0  0  0  0  0  0  0  0  0  0
   16.7576   34.1795   32.4622 H   0  0  0  0  0  0  0  0  0  0  0  0
   15.3532   35.7351   37.5144 H   0  0  0  0  0  0  0  0  0  0  0  0
   16.6368   34.5316   37.1418 H   0  0  0  0  0  0  0  0  0  0  0  0
  1  2  2  0
  1  3  1  0
  3  4  1  0
  4  5  1  0
  6  1  1  0
  7  6  1  0
  6  8  1  0
  8  9  1  0
  9 10  1  0
  9 11  2  0
 10 12  1  0
 12 13  1  0
 13 14  2  0
 15 13  1  0
 14 16  1  0
 17 15  2  0
 16 18  2  0
 18 17  1  0
  4 19  2  0
  4 20  1  0
 21 20  1  0
 21 22  1  0
 22 23  1  0
 22 24  1  0
 23 25  1  0
 24 26  1  0
 24 27  1  0
 27 25  1  0
 25 28  1  0
 27 29  1  0
 30 28  1  0
 31 28  1  0
 32 30  2  0
 30 33  1  0
 34 31  2  0
 35 32  1  0
 33 36  2  0
 33 34  1  0
 37 35  2  0
 37 36  1  0
 36 38  1  0
  6 39  1  6
  7 40  1  0
  7 41  1  0
  8 42  1  0
  8 43  1  0
 12 44  1  0
 12 45  1  0
 14 46  1  0
 15 47  1  0
 16 48  1  0
 17 49  1  0
 18 50  1  0
 21 51  1  0
 21 52  1  0
 22 53  1  0
 24 54  1  0
 25 55  1  0
 26 56  1  0
 27 57  1  0
 29 58  1  0
 31 59  1  0
 35 60  1  0
 38 61  1  0
 38 62  1  0
M  CHG  1   5  -1
M  END
>  <EmbedRMS>  (178) 
0.08765344922968707

$$$$

     RDKit          3D

 62 65  0  0  0  0  0  0  0  0999 V2000
   10.2797   43.7758   33.8099 C   0  0  0  0  0  0  0  0  0  0  0  0
   11.4063   43.5907   34.3580 O   0  0  0  0  0  0  0  0  0  0  0  0
    9.3673   42.7295   33.6980 O   0  0  0  0  0  0  0  0  0  0  0  0
    9.8864   41.2337   34.2829 P   0  0  0  0  0  5  0  0  0  0  0  0
   10.3667   41.4704   35.8733 O   0  0  0  0  0  1  0  0  0  0  0  0
    9.9462   45.1199   33.2582 C   0  0  2  0  0  0  0  0  0  0  0  0
   11.0802   46.0216   33.4703 N   0  0  0  0  0  0  0  0  0  0  0  0
    8.6718   45.7025   33.9085 C   0  0  0  0  0  0  0  0  0  0  0  0
    7.4391   44.9473   33.5151 C   0  0  0  0  0  0  0  0  0  0  0  0
    7.0226   44.9559   32.1793 O   0  0  0  0  0  0  0  0  0  0  0  0
    6.7884   44.3128   34.3898 O   0  0  0  0  0  0  0  0  0  0  0  0
    5.8888   44.2312   31.7088 C   0  0  0  0  0  0  0  0  0  0  0  0
    6.1928   42.7591   31.6488 C   0  0  0  0  0  0  0  0  0  0  0  0
    7.0274   42.2550   30.6382 C   0  0  0  0  0  0  0  0  0  0  0  0
    5.6692   41.8804   32.6119 C   0  0  0  0  0  0  0  0  0  0  0  0
    7.3117   40.8873   30.5772 C   0  0  0  0  0  0  0  0  0  0  0  0
    5.9631   40.5148   32.5523 C   0  0  0  0  0  0  0  0  0  0  0  0
    6.7811   40.0181   31.5342 C   0  0  0  0  0  0  0  0  0  0  0  0
    8.8096   40.1902   34.2092 O   0  0  0  0  0  0  0  0  0  0  0  0
   11.2385   40.7902   33.3669 O   0  0  0  0  0  0  0  0  0  0  0  0
   10.9162   40.6851   31.9941 C   0  0  0  0  0  0  0  0  0  0  0  0
   11.5179   39.3779   31.4396 C   0  0  0  0  0  0  0  0  0  0  0  0
   12.7480   39.0867   32.0754 O   0  0  0  0  0  0  0  0  0  0  0  0
   10.6064   38.1859   31.6649 C   0  0  0  0  0  0  0  0  0  0  0  0
   12.9369   37.6810   32.0290 C   0  0  0  0  0  0  0  0  0  0  0  0
    9.6418   38.0887   30.6453 O   0  0  0  0  0  0  0  0  0  0  0  0
   11.5783   37.0139   31.7048 C   0  0  0  0  0  0  0  0  0  0  0  0
   13.4913   37.2181   33.3239 N   0  0  0  0  0  0  0  0  0  0  0  0
   11.6122   36.3386   30.4680 O   0  0  0  0  0  0  0  0  0  0  0  0
   14.4765   36.3272   33.5730 C   0  0  0  0  0  0  0  0  0  0  0  0
   13.1183   37.6316   34.5690 C   0  0  0  0  0  0  0  0  0  0  0  0
   15.2066   35.6139   32.6740 N   0  0  0  0  0  0  0  0  0  0  0  0
   14.6735   36.2274   34.9184 C   0  0  0  0  0  0  0  0  0  0  0  0
   13.8227   37.0456   35.5785 N   0  0  0  0  0  0  0  0  0  0  0  0
   16.1637   34.7593   33.1548 C   0  0  0  0  0  0  0  0  0  0  0  0
   15.6517   35.3491   35.4132 C   0  0  0  0  0  0  0  0  0  0  0  0
   16.3792   34.6309   34.5043 N   0  0  0  0  0  0  0  0  0  0  0  0
   15.9003   35.1932   36.8090 N   0  0  0  0  0  0  0  0  0  0  0  0
    9.7852   45.0101   32.1625 H   0  0  0  0  0  0  0  0  0  0  0  0
   10.9064   46.9072   32.9412 H   0  0  0  0  0  0  0  0  0  0  0  0
   11.1457   46.2742   34.4843 H   0  0  0  0  0  0  0  0  0  0  0  0
    8.5406   46.7565   33.5819 H   0  0  0  0  0  0  0  0  0  0  0  0
    8.7782   45.7068   35.0163 H   0  0  0  0  0  0  0  0  0  0  0  0
    5.6368   44.5911   30.6888 H   0  0  0  0  0  0  0  0  0  0  0  0
    5.0076   44.4394   32.3548 H   0  0  0  0  0  0  0  0  0  0  0  0
    7.4518   42.9201   29.8964 H   0  0  0  0  0  0  0  0  0  0  0  0
    5.0331   42.2505   33.4063 H   0  0  0  0  0  0  0  0  0  0  0  0
    7.9509   40.5022   29.7932 H   0  0  0  0  0  0  0  0  0  0  0  0
    5.5572   39.8414   33.2960 H   0  0  0  0  0  0  0  0  0  0  0  0
    7.0062   38.9609   31.4901 H   0  0  0  0  0  0  0  0  0  0  0  0
   11.3875   41.5424   31.4678 H   0  0  0  0  0  0  0  0  0  0  0  0
    9.8282   40.7203   31.7596 H   0  0  0  0  0  0  0  0  0  0  0  0
   11.7008   39.5030   30.3473 H   0  0  0  0  0  0  0  0  0  0  0  0
   10.1068   38.2764   32.6584 H   0  0  0  0  0  0  0  0  0  0  0  0
   13.6708   37.4586   31.2227 H   0  0  0  0  0  0  0  0  0  0  0  0
    9.0126   37.3739   30.9251 H   0  0  0  0  0  0  0  0  0  0  0  0
   11.2695   36.3060   32.5095 H   0  0  0  0  0  0  0  0  0  0  0  0
   12.1430   35.5128   30.6156 H   0  0  0  0  0  0  0  0  0  0  0  0
   12.3360   38.3591   34.7445 H   0  0  0  0  0  0  0  0  0  0  0  0
   16.7570   34.1787   32.4620 H   0  0  0  0  0  0  0  0  0  0  0  0
   16.6362   34.5314   37.1415 H   0  0  0  0  0  0  0  0  0  0  0  0
   15.3531   35.7355   37.5139 H   0  0  0  0  0  0  0  0  0  0  0  0
  1  2  2  0
  1  3  1  0
  3  4  1  0
  4  5  1  0
  6  1  1  0
  7  6  1  0
  6  8  1  0
  8  9  1  0
  9 10  1  0
  9 11  2  0
 10 12  1  0
 12 13  1  0
 13 14  2  0
 15 13  1  0
 14 16  1  0
 17 15  2  0
 16 18  2  0
 18 17  1  0
  4 19  2  0
  4 20  1  0
 21 20  1  0
 21 22  1  0
 22 23  1  0
 22 24  1  0
 23 25  1  0
 24 26  1  0
 24 27  1  0
 27 25  1  0
 25 28  1  0
 27 29  1  0
 30 28  1  0
 31 28  1  0
 32 30  2  0
 30 33  1  0
 34 31  2  0
 35 32  1  0
 33 36  2  0
 33 34  1  0
 37 35  2  0
 37 36  1  0
 36 38  1  0
  6 39  1  6
  7 40  1  0
  7 41  1  0
  8 42  1  0
  8 43  1  0
 12 44  1  0
 12 45  1  0
 14 46  1  0
 15 47  1  0
 16 48  1  0
 17 49  1  0
 18 50  1  0
 21 51  1  0
 21 52  1  0
 22 53  1  0
 24 54  1  0
 25 55  1  0
 26 56  1  0
 27 57  1  0
 29 58  1  0
 31 59  1  0
 35 60  1  0
 38 61  1  0
 38 62  1  0
M  CHG  1   5  -1
M  END
>  <EmbedRMS>  (179) 
0.0889499312700138

$$$$

     RDKit          3D

 62 65  0  0  0  0  0  0  0  0999 V2000
   10.2829   43.7755   33.8075 C   0  0  0  0  0  0  0  0  0  0  0  0
   11.4085   43.5915   34.3578 O   0  0  0  0  0  0  0  0  0  0  0  0
    9.3669   42.7317   33.7011 O   0  0  0  0  0  0  0  0  0  0  0  0
    9.8865   41.2344   34.2838 P   0  0  0  0  0  5  0  0  0  0  0  0
   10.3666   41.4695   35.8744 O   0  0  0  0  0  1  0  0  0  0  0  0
    9.9532   45.1117   33.2435 C   0  0  2  0  0  0  0  0  0  0  0  0
   11.0727   46.0266   33.4848 N   0  0  0  0  0  0  0  0  0  0  0  0
    8.6396   45.6438   33.8548 C   0  0  0  0  0  0  0  0  0  0  0  0
    8.2266   46.9371   33.2244 C   0  0  0  0  0  0  0  0  0  0  0  0
    8.6112   48.1430   33.8164 O   0  0  0  0  0  0  0  0  0  0  0  0
    7.5730   46.9285   32.1454 O   0  0  0  0  0  0  0  0  0  0  0  0
    8.3049   49.4105   33.2473 C   0  0  0  0  0  0  0  0  0  0  0  0
    8.8943   50.4910   34.1052 C   0  0  0  0  0  0  0  0  0  0  0  0
   10.2361   50.8709   33.9381 C   0  0  0  0  0  0  0  0  0  0  0  0
    8.1325   51.0823   35.1267 C   0  0  0  0  0  0  0  0  0  0  0  0
   10.7983   51.8504   34.7629 C   0  0  0  0  0  0  0  0  0  0  0  0
    8.6984   52.0616   35.9493 C   0  0  0  0  0  0  0  0  0  0  0  0
   10.0294   52.4471   35.7660 C   0  0  0  0  0  0  0  0  0  0  0  0
    8.8091   40.1913   34.2078 O   0  0  0  0  0  0  0  0  0  0  0  0
   11.2390   40.7909   33.3682 O   0  0  0  0  0  0  0  0  0  0  0  0
   10.9195   40.6896   31.9946 C   0  0  0  0  0  0  0  0  0  0  0  0
   11.5171   39.3801   31.4397 C   0  0  0  0  0  0  0  0  0  0  0  0
   12.7479   39.0861   32.0734 O   0  0  0  0  0  0  0  0  0  0  0  0
   10.6031   38.1891   31.6666 C   0  0  0  0  0  0  0  0  0  0  0  0
   12.9335   37.6796   32.0280 C   0  0  0  0  0  0  0  0  0  0  0  0
    9.6397   38.0777   30.6456 O   0  0  0  0  0  0  0  0  0  0  0  0
   11.5739   37.0154   31.7057 C   0  0  0  0  0  0  0  0  0  0  0  0
   13.4903   37.2178   33.3231 N   0  0  0  0  0  0  0  0  0  0  0  0
   11.6211   36.3376   30.4695 O   0  0  0  0  0  0  0  0  0  0  0  0
   14.4761   36.3273   33.5725 C   0  0  0  0  0  0  0  0  0  0  0  0
   13.1179   37.6316   34.5684 C   0  0  0  0  0  0  0  0  0  0  0  0
   15.2063   35.6139   32.6737 N   0  0  0  0  0  0  0  0  0  0  0  0
   14.6733   36.2277   34.9180 C   0  0  0  0  0  0  0  0  0  0  0  0
   13.8225   37.0459   35.5779 N   0  0  0  0  0  0  0  0  0  0  0  0
   16.1636   34.7594   33.1546 C   0  0  0  0  0  0  0  0  0  0  0  0
   15.6515   35.3494   35.4129 C   0  0  0  0  0  0  0  0  0  0  0  0
   16.3791   34.6311   34.5041 N   0  0  0  0  0  0  0  0  0  0  0  0
   15.9001   35.1935   36.8088 N   0  0  0  0  0  0  0  0  0  0  0  0
    9.8199   44.9855   32.1458 H   0  0  0  0  0  0  0  0  0  0  0  0
   10.9466   46.8822   32.8968 H   0  0  0  0  0  0  0  0  0  0  0  0
   11.0746   46.3294   34.4868 H   0  0  0  0  0  0  0  0  0  0  0  0
    7.8246   44.9025   33.7023 H   0  0  0  0  0  0  0  0  0  0  0  0
    8.7578   45.7898   34.9509 H   0  0  0  0  0  0  0  0  0  0  0  0
    7.2018   49.5321   33.1745 H   0  0  0  0  0  0  0  0  0  0  0  0
    8.7261   49.4720   32.2198 H   0  0  0  0  0  0  0  0  0  0  0  0
   10.8454   50.4082   33.1714 H   0  0  0  0  0  0  0  0  0  0  0  0
    7.1033   50.7854   35.2862 H   0  0  0  0  0  0  0  0  0  0  0  0
   11.8312   52.1438   34.6271 H   0  0  0  0  0  0  0  0  0  0  0  0
    8.1063   52.5187   36.7315 H   0  0  0  0  0  0  0  0  0  0  0  0
   10.4663   53.2040   36.4045 H   0  0  0  0  0  0  0  0  0  0  0  0
   11.4008   41.5437   31.4721 H   0  0  0  0  0  0  0  0  0  0  0  0
    9.8315   40.7395   31.7549 H   0  0  0  0  0  0  0  0  0  0  0  0
   11.6983   39.5042   30.3470 H   0  0  0  0  0  0  0  0  0  0  0  0
   10.1090   38.2632   32.6649 H   0  0  0  0  0  0  0  0  0  0  0  0
   13.6656   37.4541   31.2207 H   0  0  0  0  0  0  0  0  0  0  0  0
    8.8965   38.6899   30.8852 H   0  0  0  0  0  0  0  0  0  0  0  0
   11.2846   36.3060   32.5175 H   0  0  0  0  0  0  0  0  0  0  0  0
   10.8523   35.7094   30.4590 H   0  0  0  0  0  0  0  0  0  0  0  0
   12.3353   38.3588   34.7439 H   0  0  0  0  0  0  0  0  0  0  0  0
   16.7570   34.1787   32.4619 H   0  0  0  0  0  0  0  0  0  0  0  0
   16.6360   34.5317   37.1413 H   0  0  0  0  0  0  0  0  0  0  0  0
   15.3529   35.7359   37.5136 H   0  0  0  0  0  0  0  0  0  0  0  0
  1  2  2  0
  1  3  1  0
  3  4  1  0
  4  5  1  0
  6  1  1  0
  7  6  1  0
  6  8  1  0
  8  9  1  0
  9 10  1  0
  9 11  2  0
 10 12  1  0
 12 13  1  0
 13 14  2  0
 15 13  1  0
 14 16  1  0
 17 15  2  0
 16 18  2  0
 18 17  1  0
  4 19  2  0
  4 20  1  0
 21 20  1  0
 21 22  1  0
 22 23  1  0
 22 24  1  0
 23 25  1  0
 24 26  1  0
 24 27  1  0
 27 25  1  0
 25 28  1  0
 27 29  1  0
 30 28  1  0
 31 28  1  0
 32 30  2  0
 30 33  1  0
 34 31  2  0
 35 32  1  0
 33 36  2  0
 33 34  1  0
 37 35  2  0
 37 36  1  0
 36 38  1  0
  6 39  1  6
  7 40  1  0
  7 41  1  0
  8 42  1  0
  8 43  1  0
 12 44  1  0
 12 45  1  0
 14 46  1  0
 15 47  1  0
 16 48  1  0
 17 49  1  0
 18 50  1  0
 21 51  1  0
 21 52  1  0
 22 53  1  0
 24 54  1  0
 25 55  1  0
 26 56  1  0
 27 57  1  0
 29 58  1  0
 31 59  1  0
 35 60  1  0
 38 61  1  0
 38 62  1  0
M  CHG  1   5  -1
M  END
>  <EmbedRMS>  (180) 
0.08916710095770836

$$$$

     RDKit          3D

 62 65  0  0  0  0  0  0  0  0999 V2000
   10.2800   43.7759   33.8078 C   0  0  0  0  0  0  0  0  0  0  0  0
   11.4058   43.5914   34.3579 O   0  0  0  0  0  0  0  0  0  0  0  0
    9.3676   42.7299   33.6983 O   0  0  0  0  0  0  0  0  0  0  0  0
    9.8866   41.2342   34.2840 P   0  0  0  0  0  5  0  0  0  0  0  0
   10.3668   41.4707   35.8743 O   0  0  0  0  0  1  0  0  0  0  0  0
    9.9522   45.1173   33.2452 C   0  0  2  0  0  0  0  0  0  0  0  0
   11.0759   46.0250   33.4844 N   0  0  0  0  0  0  0  0  0  0  0  0
    8.6545   45.6915   33.8576 C   0  0  0  0  0  0  0  0  0  0  0  0
    7.4315   45.0296   33.2996 C   0  0  0  0  0  0  0  0  0  0  0  0
    6.8349   43.9781   34.0004 O   0  0  0  0  0  0  0  0  0  0  0  0
    6.9685   45.4063   32.1883 O   0  0  0  0  0  0  0  0  0  0  0  0
    5.6794   43.2963   33.5260 C   0  0  0  0  0  0  0  0  0  0  0  0
    5.3650   42.1561   34.4490 C   0  0  0  0  0  0  0  0  0  0  0  0
    5.6847   40.8364   34.0885 C   0  0  0  0  0  0  0  0  0  0  0  0
    4.7959   42.4078   35.7079 C   0  0  0  0  0  0  0  0  0  0  0  0
    5.4238   39.7831   34.9705 C   0  0  0  0  0  0  0  0  0  0  0  0
    4.5355   41.3516   36.5867 C   0  0  0  0  0  0  0  0  0  0  0  0
    4.8485   40.0402   36.2180 C   0  0  0  0  0  0  0  0  0  0  0  0
    8.8115   40.1893   34.2093 O   0  0  0  0  0  0  0  0  0  0  0  0
   11.2378   40.7917   33.3670 O   0  0  0  0  0  0  0  0  0  0  0  0
   10.9133   40.6861   31.9947 C   0  0  0  0  0  0  0  0  0  0  0  0
   11.5167   39.3798   31.4410 C   0  0  0  0  0  0  0  0  0  0  0  0
   12.7486   39.0886   32.0762 O   0  0  0  0  0  0  0  0  0  0  0  0
   10.6049   38.1877   31.6661 C   0  0  0  0  0  0  0  0  0  0  0  0
   12.9410   37.6829   32.0278 C   0  0  0  0  0  0  0  0  0  0  0  0
    9.6355   38.0931   30.6505 O   0  0  0  0  0  0  0  0  0  0  0  0
   11.5824   37.0180   31.6937 C   0  0  0  0  0  0  0  0  0  0  0  0
   13.4908   37.2177   33.3239 N   0  0  0  0  0  0  0  0  0  0  0  0
   11.6138   36.3181   30.4676 O   0  0  0  0  0  0  0  0  0  0  0  0
   14.4762   36.3270   33.5733 C   0  0  0  0  0  0  0  0  0  0  0  0
   13.1178   37.6316   34.5689 C   0  0  0  0  0  0  0  0  0  0  0  0
   15.2067   35.6140   32.6743 N   0  0  0  0  0  0  0  0  0  0  0  0
   14.6731   36.2273   34.9186 C   0  0  0  0  0  0  0  0  0  0  0  0
   13.8222   37.0456   35.5785 N   0  0  0  0  0  0  0  0  0  0  0  0
   16.1639   34.7595   33.1550 C   0  0  0  0  0  0  0  0  0  0  0  0
   15.6515   35.3492   35.4134 C   0  0  0  0  0  0  0  0  0  0  0  0
   16.3792   34.6310   34.5045 N   0  0  0  0  0  0  0  0  0  0  0  0
   15.9002   35.1934   36.8092 N   0  0  0  0  0  0  0  0  0  0  0  0
    9.8249   45.0046   32.1452 H   0  0  0  0  0  0  0  0  0  0  0  0
   10.9165   46.9051   32.9416 H   0  0  0  0  0  0  0  0  0  0  0  0
   11.1062   46.2866   34.4978 H   0  0  0  0  0  0  0  0  0  0  0  0
    8.6680   45.5797   34.9641 H   0  0  0  0  0  0  0  0  0  0  0  0
    8.5876   46.7794   33.6374 H   0  0  0  0  0  0  0  0  0  0  0  0
    5.8612   42.9231   32.4939 H   0  0  0  0  0  0  0  0  0  0  0  0
    4.8190   43.9995   33.4922 H   0  0  0  0  0  0  0  0  0  0  0  0
    6.1391   40.6228   33.1289 H   0  0  0  0  0  0  0  0  0  0  0  0
    4.5576   43.4208   36.0081 H   0  0  0  0  0  0  0  0  0  0  0  0
    5.6716   38.7680   34.6883 H   0  0  0  0  0  0  0  0  0  0  0  0
    4.0947   41.5501   37.5550 H   0  0  0  0  0  0  0  0  0  0  0  0
    4.6486   39.2240   36.9001 H   0  0  0  0  0  0  0  0  0  0  0  0
    9.8229   40.7207   31.7590 H   0  0  0  0  0  0  0  0  0  0  0  0
   11.3844   41.5434   31.4680 H   0  0  0  0  0  0  0  0  0  0  0  0
   11.6990   39.5065   30.3488 H   0  0  0  0  0  0  0  0  0  0  0  0
   10.1118   38.2724   32.6635 H   0  0  0  0  0  0  0  0  0  0  0  0
   13.6814   37.4632   31.2269 H   0  0  0  0  0  0  0  0  0  0  0  0
    9.0018   37.3848   30.9365 H   0  0  0  0  0  0  0  0  0  0  0  0
   11.2844   36.3041   32.4929 H   0  0  0  0  0  0  0  0  0  0  0  0
   11.8844   36.9592   29.7589 H   0  0  0  0  0  0  0  0  0  0  0  0
   12.3362   38.3598   34.7441 H   0  0  0  0  0  0  0  0  0  0  0  0
   16.7574   34.1791   32.4623 H   0  0  0  0  0  0  0  0  0  0  0  0
   15.3529   35.7356   37.5141 H   0  0  0  0  0  0  0  0  0  0  0  0
   16.6363   34.5317   37.1417 H   0  0  0  0  0  0  0  0  0  0  0  0
  1  2  2  0
  1  3  1  0
  3  4  1  0
  4  5  1  0
  6  1  1  0
  7  6  1  0
  6  8  1  0
  8  9  1  0
  9 10  1  0
  9 11  2  0
 10 12  1  0
 12 13  1  0
 13 14  2  0
 15 13  1  0
 14 16  1  0
 17 15  2  0
 16 18  2  0
 18 17  1  0
  4 19  2  0
  4 20  1  0
 21 20  1  0
 21 22  1  0
 22 23  1  0
 22 24  1  0
 23 25  1  0
 24 26  1  0
 24 27  1  0
 27 25  1  0
 25 28  1  0
 27 29  1  0
 30 28  1  0
 31 28  1  0
 32 30  2  0
 30 33  1  0
 34 31  2  0
 35 32  1  0
 33 36  2  0
 33 34  1  0
 37 35  2  0
 37 36  1  0
 36 38  1  0
  6 39  1  6
  7 40  1  0
  7 41  1  0
  8 42  1  0
  8 43  1  0
 12 44  1  0
 12 45  1  0
 14 46  1  0
 15 47  1  0
 16 48  1  0
 17 49  1  0
 18 50  1  0
 21 51  1  0
 21 52  1  0
 22 53  1  0
 24 54  1  0
 25 55  1  0
 26 56  1  0
 27 57  1  0
 29 58  1  0
 31 59  1  0
 35 60  1  0
 38 61  1  0
 38 62  1  0
M  CHG  1   5  -1
M  END
>  <EmbedRMS>  (181) 
0.08756638389070416

$$$$

     RDKit          3D

 62 65  0  0  0  0  0  0  0  0999 V2000
   10.2800   43.7765   33.8117 C   0  0  0  0  0  0  0  0  0  0  0  0
   11.4063   43.5922   34.3605 O   0  0  0  0  0  0  0  0  0  0  0  0
    9.3682   42.7299   33.7018 O   0  0  0  0  0  0  0  0  0  0  0  0
    9.8870   41.2332   34.2830 P   0  0  0  0  0  5  0  0  0  0  0  0
   10.3676   41.4680   35.8736 O   0  0  0  0  0  1  0  0  0  0  0  0
    9.9533   45.1158   33.2429 C   0  0  2  0  0  0  0  0  0  0  0  0
   11.0752   46.0258   33.4807 N   0  0  0  0  0  0  0  0  0  0  0  0
    8.6515   45.6978   33.8436 C   0  0  0  0  0  0  0  0  0  0  0  0
    7.4251   44.9130   33.4751 C   0  0  0  0  0  0  0  0  0  0  0  0
    7.3585   44.2536   32.2439 O   0  0  0  0  0  0  0  0  0  0  0  0
    6.4455   44.8853   34.2689 O   0  0  0  0  0  0  0  0  0  0  0  0
    6.2475   43.4549   31.8552 C   0  0  0  0  0  0  0  0  0  0  0  0
    6.5784   42.7500   30.5735 C   0  0  0  0  0  0  0  0  0  0  0  0
    6.4062   43.4043   29.3429 C   0  0  0  0  0  0  0  0  0  0  0  0
    7.1368   41.4612   30.5971 C   0  0  0  0  0  0  0  0  0  0  0  0
    6.7629   42.7660   28.1507 C   0  0  0  0  0  0  0  0  0  0  0  0
    7.4922   40.8268   29.4028 C   0  0  0  0  0  0  0  0  0  0  0  0
    7.3039   41.4776   28.1806 C   0  0  0  0  0  0  0  0  0  0  0  0
    8.8086   40.1913   34.2071 O   0  0  0  0  0  0  0  0  0  0  0  0
   11.2382   40.7910   33.3651 O   0  0  0  0  0  0  0  0  0  0  0  0
   10.9146   40.6852   31.9925 C   0  0  0  0  0  0  0  0  0  0  0  0
   11.5164   39.3774   31.4389 C   0  0  0  0  0  0  0  0  0  0  0  0
   12.7472   39.0855   32.0734 O   0  0  0  0  0  0  0  0  0  0  0  0
   10.6046   38.1869   31.6672 C   0  0  0  0  0  0  0  0  0  0  0  0
   12.9344   37.6791   32.0281 C   0  0  0  0  0  0  0  0  0  0  0  0
    9.6384   38.0908   30.6491 O   0  0  0  0  0  0  0  0  0  0  0  0
   11.5759   37.0131   31.7059 C   0  0  0  0  0  0  0  0  0  0  0  0
   13.4910   37.2179   33.3233 N   0  0  0  0  0  0  0  0  0  0  0  0
   11.6230   36.3371   30.4687 O   0  0  0  0  0  0  0  0  0  0  0  0
   14.4765   36.3273   33.5727 C   0  0  0  0  0  0  0  0  0  0  0  0
   13.1182   37.6317   34.5685 C   0  0  0  0  0  0  0  0  0  0  0  0
   15.2066   35.6138   32.6739 N   0  0  0  0  0  0  0  0  0  0  0  0
   14.6735   36.2276   34.9181 C   0  0  0  0  0  0  0  0  0  0  0  0
   13.8227   37.0458   35.5781 N   0  0  0  0  0  0  0  0  0  0  0  0
   16.1638   34.7593   33.1547 C   0  0  0  0  0  0  0  0  0  0  0  0
   15.6516   35.3493   35.4131 C   0  0  0  0  0  0  0  0  0  0  0  0
   16.3792   34.6309   34.5042 N   0  0  0  0  0  0  0  0  0  0  0  0
   15.9002   35.1934   36.8089 N   0  0  0  0  0  0  0  0  0  0  0  0
    9.8319   44.9982   32.1432 H   0  0  0  0  0  0  0  0  0  0  0  0
   11.1123   46.2816   34.4953 H   0  0  0  0  0  0  0  0  0  0  0  0
   10.9088   46.9089   32.9450 H   0  0  0  0  0  0  0  0  0  0  0  0
    8.7413   45.7436   34.9516 H   0  0  0  0  0  0  0  0  0  0  0  0
    8.5103   46.7357   33.4732 H   0  0  0  0  0  0  0  0  0  0  0  0
    6.0203   42.7118   32.6514 H   0  0  0  0  0  0  0  0  0  0  0  0
    5.3523   44.1001   31.7200 H   0  0  0  0  0  0  0  0  0  0  0  0
    5.9996   44.4075   29.3076 H   0  0  0  0  0  0  0  0  0  0  0  0
    7.2972   40.9493   31.5380 H   0  0  0  0  0  0  0  0  0  0  0  0
    6.6244   43.2722   27.2041 H   0  0  0  0  0  0  0  0  0  0  0  0
    7.9160   39.8319   29.4243 H   0  0  0  0  0  0  0  0  0  0  0  0
    7.5811   40.9856   27.2573 H   0  0  0  0  0  0  0  0  0  0  0  0
   11.3862   41.5419   31.4655 H   0  0  0  0  0  0  0  0  0  0  0  0
    9.8255   40.7206   31.7568 H   0  0  0  0  0  0  0  0  0  0  0  0
   11.6979   39.5011   30.3462 H   0  0  0  0  0  0  0  0  0  0  0  0
   10.1095   38.2780   32.6632 H   0  0  0  0  0  0  0  0  0  0  0  0
   13.6669   37.4542   31.2211 H   0  0  0  0  0  0  0  0  0  0  0  0
    8.9712   37.4246   30.9592 H   0  0  0  0  0  0  0  0  0  0  0  0
   11.2858   36.3044   32.5180 H   0  0  0  0  0  0  0  0  0  0  0  0
   10.8670   35.6937   30.4653 H   0  0  0  0  0  0  0  0  0  0  0  0
   12.3355   38.3588   34.7439 H   0  0  0  0  0  0  0  0  0  0  0  0
   16.7571   34.1786   32.4621 H   0  0  0  0  0  0  0  0  0  0  0  0
   15.3530   35.7358   37.5138 H   0  0  0  0  0  0  0  0  0  0  0  0
   16.6360   34.5315   37.1415 H   0  0  0  0  0  0  0  0  0  0  0  0
  1  2  2  0
  1  3  1  0
  3  4  1  0
  4  5  1  0
  6  1  1  0
  7  6  1  0
  6  8  1  0
  8  9  1  0
  9 10  1  0
  9 11  2  0
 10 12  1  0
 12 13  1  0
 13 14  2  0
 15 13  1  0
 14 16  1  0
 17 15  2  0
 16 18  2  0
 18 17  1  0
  4 19  2  0
  4 20  1  0
 21 20  1  0
 21 22  1  0
 22 23  1  0
 22 24  1  0
 23 25  1  0
 24 26  1  0
 24 27  1  0
 27 25  1  0
 25 28  1  0
 27 29  1  0
 30 28  1  0
 31 28  1  0
 32 30  2  0
 30 33  1  0
 34 31  2  0
 35 32  1  0
 33 36  2  0
 33 34  1  0
 37 35  2  0
 37 36  1  0
 36 38  1  0
  6 39  1  6
  7 40  1  0
  7 41  1  0
  8 42  1  0
  8 43  1  0
 12 44  1  0
 12 45  1  0
 14 46  1  0
 15 47  1  0
 16 48  1  0
 17 49  1  0
 18 50  1  0
 21 51  1  0
 21 52  1  0
 22 53  1  0
 24 54  1  0
 25 55  1  0
 26 56  1  0
 27 57  1  0
 29 58  1  0
 31 59  1  0
 35 60  1  0
 38 61  1  0
 38 62  1  0
M  CHG  1   5  -1
M  END
>  <EmbedRMS>  (182) 
0.08909504978001413

$$$$

     RDKit          3D

 62 65  0  0  0  0  0  0  0  0999 V2000
   10.2808   43.7760   33.8098 C   0  0  0  0  0  0  0  0  0  0  0  0
   11.4068   43.5917   34.3592 O   0  0  0  0  0  0  0  0  0  0  0  0
    9.3682   42.7300   33.6998 O   0  0  0  0  0  0  0  0  0  0  0  0
    9.8866   41.2338   34.2841 P   0  0  0  0  0  5  0  0  0  0  0  0
   10.3669   41.4697   35.8746 O   0  0  0  0  0  1  0  0  0  0  0  0
    9.9524   45.1159   33.2451 C   0  0  2  0  0  0  0  0  0  0  0  0
   11.0746   46.0259   33.4813 N   0  0  0  0  0  0  0  0  0  0  0  0
    8.6542   45.6909   33.8541 C   0  0  0  0  0  0  0  0  0  0  0  0
    7.4406   44.9327   33.4086 C   0  0  0  0  0  0  0  0  0  0  0  0
    7.0737   44.9532   32.0583 O   0  0  0  0  0  0  0  0  0  0  0  0
    6.7712   44.2718   34.2489 O   0  0  0  0  0  0  0  0  0  0  0  0
    5.9427   44.2537   31.5442 C   0  0  0  0  0  0  0  0  0  0  0  0
    4.6678   44.9224   31.9805 C   0  0  0  0  0  0  0  0  0  0  0  0
    3.8013   44.2907   32.8884 C   0  0  0  0  0  0  0  0  0  0  0  0
    4.3473   46.2019   31.4985 C   0  0  0  0  0  0  0  0  0  0  0  0
    2.6275   44.9292   33.3009 C   0  0  0  0  0  0  0  0  0  0  0  0
    3.1725   46.8368   31.9133 C   0  0  0  0  0  0  0  0  0  0  0  0
    2.3129   46.2008   32.8134 C   0  0  0  0  0  0  0  0  0  0  0  0
    8.8086   40.1913   34.2086 O   0  0  0  0  0  0  0  0  0  0  0  0
   11.2378   40.7900   33.3677 O   0  0  0  0  0  0  0  0  0  0  0  0
   10.9153   40.6882   31.9949 C   0  0  0  0  0  0  0  0  0  0  0  0
   11.5260   39.3871   31.4364 C   0  0  0  0  0  0  0  0  0  0  0  0
   12.7491   39.0893   32.0818 O   0  0  0  0  0  0  0  0  0  0  0  0
   10.6122   38.1893   31.6461 C   0  0  0  0  0  0  0  0  0  0  0  0
   12.9373   37.6827   32.0301 C   0  0  0  0  0  0  0  0  0  0  0  0
    9.6149   38.0839   30.6538 O   0  0  0  0  0  0  0  0  0  0  0  0
   11.5792   37.0137   31.7014 C   0  0  0  0  0  0  0  0  0  0  0  0
   13.4906   37.2170   33.3242 N   0  0  0  0  0  0  0  0  0  0  0  0
   11.6216   36.3252   30.4725 O   0  0  0  0  0  0  0  0  0  0  0  0
   14.4763   36.3266   33.5731 C   0  0  0  0  0  0  0  0  0  0  0  0
   13.1181   37.6308   34.5694 C   0  0  0  0  0  0  0  0  0  0  0  0
   15.2065   35.6137   32.6740 N   0  0  0  0  0  0  0  0  0  0  0  0
   14.6735   36.2270   34.9185 C   0  0  0  0  0  0  0  0  0  0  0  0
   13.8229   37.0451   35.5787 N   0  0  0  0  0  0  0  0  0  0  0  0
   16.1639   34.7593   33.1547 C   0  0  0  0  0  0  0  0  0  0  0  0
   15.6518   35.3489   35.4132 C   0  0  0  0  0  0  0  0  0  0  0  0
   16.3794   34.6308   34.5042 N   0  0  0  0  0  0  0  0  0  0  0  0
   15.9006   35.1931   36.8090 N   0  0  0  0  0  0  0  0  0  0  0  0
    9.8237   44.9998   32.1458 H   0  0  0  0  0  0  0  0  0  0  0  0
   10.9083   46.9081   32.9441 H   0  0  0  0  0  0  0  0  0  0  0  0
   11.1112   46.2833   34.4956 H   0  0  0  0  0  0  0  0  0  0  0  0
    8.5304   46.7464   33.5296 H   0  0  0  0  0  0  0  0  0  0  0  0
    8.7202   45.6878   34.9649 H   0  0  0  0  0  0  0  0  0  0  0  0
    5.9930   44.2648   30.4349 H   0  0  0  0  0  0  0  0  0  0  0  0
    5.9786   43.1892   31.8647 H   0  0  0  0  0  0  0  0  0  0  0  0
    4.0342   43.3076   33.2783 H   0  0  0  0  0  0  0  0  0  0  0  0
    5.0081   46.7061   30.8040 H   0  0  0  0  0  0  0  0  0  0  0  0
    1.9624   44.4389   34.0000 H   0  0  0  0  0  0  0  0  0  0  0  0
    2.9292   47.8225   31.5383 H   0  0  0  0  0  0  0  0  0  0  0  0
    1.4043   46.6937   33.1342 H   0  0  0  0  0  0  0  0  0  0  0  0
    9.8250   40.7180   31.7584 H   0  0  0  0  0  0  0  0  0  0  0  0
   11.3822   41.5504   31.4723 H   0  0  0  0  0  0  0  0  0  0  0  0
   11.7290   39.5287   30.3503 H   0  0  0  0  0  0  0  0  0  0  0  0
   10.1139   38.2719   32.6379 H   0  0  0  0  0  0  0  0  0  0  0  0
   13.6725   37.4636   31.2240 H   0  0  0  0  0  0  0  0  0  0  0  0
   10.0534   38.1085   29.7638 H   0  0  0  0  0  0  0  0  0  0  0  0
   11.2645   36.3135   32.5107 H   0  0  0  0  0  0  0  0  0  0  0  0
   12.1548   35.5032   30.6316 H   0  0  0  0  0  0  0  0  0  0  0  0
   12.3362   38.3586   34.7450 H   0  0  0  0  0  0  0  0  0  0  0  0
   16.7573   34.1788   32.4619 H   0  0  0  0  0  0  0  0  0  0  0  0
   15.3533   35.7353   37.5139 H   0  0  0  0  0  0  0  0  0  0  0  0
   16.6366   34.5314   37.1415 H   0  0  0  0  0  0  0  0  0  0  0  0
  1  2  2  0
  1  3  1  0
  3  4  1  0
  4  5  1  0
  6  1  1  0
  7  6  1  0
  6  8  1  0
  8  9  1  0
  9 10  1  0
  9 11  2  0
 10 12  1  0
 12 13  1  0
 13 14  2  0
 15 13  1  0
 14 16  1  0
 17 15  2  0
 16 18  2  0
 18 17  1  0
  4 19  2  0
  4 20  1  0
 21 20  1  0
 21 22  1  0
 22 23  1  0
 22 24  1  0
 23 25  1  0
 24 26  1  0
 24 27  1  0
 27 25  1  0
 25 28  1  0
 27 29  1  0
 30 28  1  0
 31 28  1  0
 32 30  2  0
 30 33  1  0
 34 31  2  0
 35 32  1  0
 33 36  2  0
 33 34  1  0
 37 35  2  0
 37 36  1  0
 36 38  1  0
  6 39  1  6
  7 40  1  0
  7 41  1  0
  8 42  1  0
  8 43  1  0
 12 44  1  0
 12 45  1  0
 14 46  1  0
 15 47  1  0
 16 48  1  0
 17 49  1  0
 18 50  1  0
 21 51  1  0
 21 52  1  0
 22 53  1  0
 24 54  1  0
 25 55  1  0
 26 56  1  0
 27 57  1  0
 29 58  1  0
 31 59  1  0
 35 60  1  0
 38 61  1  0
 38 62  1  0
M  CHG  1   5  -1
M  END
>  <EmbedRMS>  (183) 
0.08786313533442194

$$$$

     RDKit          3D

 62 65  0  0  0  0  0  0  0  0999 V2000
   10.2844   43.7742   33.8068 C   0  0  0  0  0  0  0  0  0  0  0  0
   11.4068   43.5902   34.3637 O   0  0  0  0  0  0  0  0  0  0  0  0
    9.3679   42.7310   33.6987 O   0  0  0  0  0  0  0  0  0  0  0  0
    9.8859   41.2341   34.2835 P   0  0  0  0  0  5  0  0  0  0  0  0
   10.3663   41.4697   35.8740 O   0  0  0  0  0  1  0  0  0  0  0  0
    9.9493   45.1163   33.2546 C   0  0  2  0  0  0  0  0  0  0  0  0
   11.0754   46.0282   33.4733 N   0  0  0  0  0  0  0  0  0  0  0  0
    8.6772   45.6528   33.9410 C   0  0  0  0  0  0  0  0  0  0  0  0
    8.1876   46.9085   33.2892 C   0  0  0  0  0  0  0  0  0  0  0  0
    8.4665   48.1453   33.8815 O   0  0  0  0  0  0  0  0  0  0  0  0
    7.5585   46.8425   32.1979 O   0  0  0  0  0  0  0  0  0  0  0  0
    8.1701   49.3936   33.2602 C   0  0  0  0  0  0  0  0  0  0  0  0
    9.1123   49.6401   32.1138 C   0  0  0  0  0  0  0  0  0  0  0  0
    8.6568   49.5812   30.7860 C   0  0  0  0  0  0  0  0  0  0  0  0
   10.4710   49.8901   32.3656 C   0  0  0  0  0  0  0  0  0  0  0  0
    9.5485   49.7798   29.7271 C   0  0  0  0  0  0  0  0  0  0  0  0
   11.3595   50.0872   31.3040 C   0  0  0  0  0  0  0  0  0  0  0  0
   10.8984   50.0331   29.9858 C   0  0  0  0  0  0  0  0  0  0  0  0
    8.8082   40.1914   34.2081 O   0  0  0  0  0  0  0  0  0  0  0  0
   11.2374   40.7899   33.3677 O   0  0  0  0  0  0  0  0  0  0  0  0
   10.9156   40.6881   31.9946 C   0  0  0  0  0  0  0  0  0  0  0  0
   11.5262   39.3870   31.4363 C   0  0  0  0  0  0  0  0  0  0  0  0
   12.7492   39.0892   32.0818 O   0  0  0  0  0  0  0  0  0  0  0  0
   10.6123   38.1893   31.6461 C   0  0  0  0  0  0  0  0  0  0  0  0
   12.9374   37.6826   32.0301 C   0  0  0  0  0  0  0  0  0  0  0  0
    9.6150   38.0838   30.6538 O   0  0  0  0  0  0  0  0  0  0  0  0
   11.5793   37.0136   31.7014 C   0  0  0  0  0  0  0  0  0  0  0  0
   13.4906   37.2169   33.3242 N   0  0  0  0  0  0  0  0  0  0  0  0
   11.6216   36.3252   30.4725 O   0  0  0  0  0  0  0  0  0  0  0  0
   14.4763   36.3266   33.5731 C   0  0  0  0  0  0  0  0  0  0  0  0
   13.1182   37.6308   34.5694 C   0  0  0  0  0  0  0  0  0  0  0  0
   15.2065   35.6137   32.6740 N   0  0  0  0  0  0  0  0  0  0  0  0
   14.6736   36.2270   34.9185 C   0  0  0  0  0  0  0  0  0  0  0  0
   13.8229   37.0451   35.5787 N   0  0  0  0  0  0  0  0  0  0  0  0
   16.1639   34.7593   33.1547 C   0  0  0  0  0  0  0  0  0  0  0  0
   15.6519   35.3489   35.4132 C   0  0  0  0  0  0  0  0  0  0  0  0
   16.3795   34.6308   34.5042 N   0  0  0  0  0  0  0  0  0  0  0  0
   15.9006   35.1931   36.8090 N   0  0  0  0  0  0  0  0  0  0  0  0
    9.7645   45.0047   32.1619 H   0  0  0  0  0  0  0  0  0  0  0  0
   10.8475   46.9536   33.0441 H   0  0  0  0  0  0  0  0  0  0  0  0
   11.8967   45.6756   32.9284 H   0  0  0  0  0  0  0  0  0  0  0  0
    8.8822   45.8494   35.0163 H   0  0  0  0  0  0  0  0  0  0  0  0
    7.8641   44.8960   33.8852 H   0  0  0  0  0  0  0  0  0  0  0  0
    7.1082   49.4124   32.9300 H   0  0  0  0  0  0  0  0  0  0  0  0
    8.2956   50.2025   34.0107 H   0  0  0  0  0  0  0  0  0  0  0  0
    7.6153   49.3783   30.5701 H   0  0  0  0  0  0  0  0  0  0  0  0
   10.8412   49.9260   33.3829 H   0  0  0  0  0  0  0  0  0  0  0  0
    9.1934   49.7343   28.7057 H   0  0  0  0  0  0  0  0  0  0  0  0
   12.4058   50.2791   31.5033 H   0  0  0  0  0  0  0  0  0  0  0  0
   11.5874   50.1848   29.1650 H   0  0  0  0  0  0  0  0  0  0  0  0
    9.8254   40.7180   31.7577 H   0  0  0  0  0  0  0  0  0  0  0  0
   11.3830   41.5502   31.4724 H   0  0  0  0  0  0  0  0  0  0  0  0
   11.7292   39.5285   30.3502 H   0  0  0  0  0  0  0  0  0  0  0  0
   10.1140   38.2719   32.6379 H   0  0  0  0  0  0  0  0  0  0  0  0
   13.6726   37.4635   31.2240 H   0  0  0  0  0  0  0  0  0  0  0  0
   10.0535   38.1084   29.7638 H   0  0  0  0  0  0  0  0  0  0  0  0
   11.2646   36.3134   32.5107 H   0  0  0  0  0  0  0  0  0  0  0  0
   12.1549   35.5031   30.6316 H   0  0  0  0  0  0  0  0  0  0  0  0
   12.3362   38.3586   34.7450 H   0  0  0  0  0  0  0  0  0  0  0  0
   16.7573   34.1788   32.4619 H   0  0  0  0  0  0  0  0  0  0  0  0
   15.3533   35.7353   37.5139 H   0  0  0  0  0  0  0  0  0  0  0  0
   16.6366   34.5314   37.1415 H   0  0  0  0  0  0  0  0  0  0  0  0
  1  2  2  0
  1  3  1  0
  3  4  1  0
  4  5  1  0
  6  1  1  0
  7  6  1  0
  6  8  1  0
  8  9  1  0
  9 10  1  0
  9 11  2  0
 10 12  1  0
 12 13  1  0
 13 14  2  0
 15 13  1  0
 14 16  1  0
 17 15  2  0
 16 18  2  0
 18 17  1  0
  4 19  2  0
  4 20  1  0
 21 20  1  0
 21 22  1  0
 22 23  1  0
 22 24  1  0
 23 25  1  0
 24 26  1  0
 24 27  1  0
 27 25  1  0
 25 28  1  0
 27 29  1  0
 30 28  1  0
 31 28  1  0
 32 30  2  0
 30 33  1  0
 34 31  2  0
 35 32  1  0
 33 36  2  0
 33 34  1  0
 37 35  2  0
 37 36  1  0
 36 38  1  0
  6 39  1  6
  7 40  1  0
  7 41  1  0
  8 42  1  0
  8 43  1  0
 12 44  1  0
 12 45  1  0
 14 46  1  0
 15 47  1  0
 16 48  1  0
 17 49  1  0
 18 50  1  0
 21 51  1  0
 21 52  1  0
 22 53  1  0
 24 54  1  0
 25 55  1  0
 26 56  1  0
 27 57  1  0
 29 58  1  0
 31 59  1  0
 35 60  1  0
 38 61  1  0
 38 62  1  0
M  CHG  1   5  -1
M  END
>  <EmbedRMS>  (184) 
0.08799891530060693

$$$$

     RDKit          3D

 62 65  0  0  0  0  0  0  0  0999 V2000
   10.2876   43.7688   33.8087 C   0  0  0  0  0  0  0  0  0  0  0  0
   11.4116   43.5792   34.3595 O   0  0  0  0  0  0  0  0  0  0  0  0
    9.3666   42.7304   33.7019 O   0  0  0  0  0  0  0  0  0  0  0  0
    9.8841   41.2327   34.2844 P   0  0  0  0  0  5  0  0  0  0  0  0
   10.3649   41.4680   35.8749 O   0  0  0  0  0  1  0  0  0  0  0  0
    9.9637   45.1117   33.2471 C   0  0  2  0  0  0  0  0  0  0  0  0
   11.0623   46.0541   33.4763 N   0  0  0  0  0  0  0  0  0  0  0  0
    8.6424   45.6684   33.8116 C   0  0  0  0  0  0  0  0  0  0  0  0
    8.6660   45.8189   35.3040 C   0  0  0  0  0  0  0  0  0  0  0  0
    9.1631   46.9966   35.8681 O   0  0  0  0  0  0  0  0  0  0  0  0
    8.2716   44.8707   36.0367 O   0  0  0  0  0  0  0  0  0  0  0  0
    9.2753   47.1872   37.2736 C   0  0  0  0  0  0  0  0  0  0  0  0
    9.8946   48.5272   37.5411 C   0  0  0  0  0  0  0  0  0  0  0  0
   11.2910   48.6764   37.5121 C   0  0  0  0  0  0  0  0  0  0  0  0
    9.0850   49.6552   37.7541 C   0  0  0  0  0  0  0  0  0  0  0  0
   11.8691   49.9322   37.7229 C   0  0  0  0  0  0  0  0  0  0  0  0
    9.6672   50.9093   37.9647 C   0  0  0  0  0  0  0  0  0  0  0  0
   11.0581   51.0473   37.9515 C   0  0  0  0  0  0  0  0  0  0  0  0
    8.8064   40.1902   34.2084 O   0  0  0  0  0  0  0  0  0  0  0  0
   11.2363   40.7892   33.3687 O   0  0  0  0  0  0  0  0  0  0  0  0
   10.9157   40.6888   31.9953 C   0  0  0  0  0  0  0  0  0  0  0  0
   11.5251   39.3872   31.4365 C   0  0  0  0  0  0  0  0  0  0  0  0
   12.7485   39.0879   32.0803 O   0  0  0  0  0  0  0  0  0  0  0  0
   10.6100   38.1909   31.6470 C   0  0  0  0  0  0  0  0  0  0  0  0
   12.9348   37.6808   32.0292 C   0  0  0  0  0  0  0  0  0  0  0  0
    9.6126   38.0874   30.6546 O   0  0  0  0  0  0  0  0  0  0  0  0
   11.5767   37.0133   31.7025 C   0  0  0  0  0  0  0  0  0  0  0  0
   13.4901   37.2165   33.3236 N   0  0  0  0  0  0  0  0  0  0  0  0
   11.6322   36.3231   30.4741 O   0  0  0  0  0  0  0  0  0  0  0  0
   14.4762   36.3266   33.5727 C   0  0  0  0  0  0  0  0  0  0  0  0
   13.1179   37.6307   34.5689 C   0  0  0  0  0  0  0  0  0  0  0  0
   15.2065   35.6135   32.6738 N   0  0  0  0  0  0  0  0  0  0  0  0
   14.6736   36.2272   34.9182 C   0  0  0  0  0  0  0  0  0  0  0  0
   13.8228   37.0453   35.5783 N   0  0  0  0  0  0  0  0  0  0  0  0
   16.1640   34.7593   33.1547 C   0  0  0  0  0  0  0  0  0  0  0  0
   15.6518   35.3491   35.4131 C   0  0  0  0  0  0  0  0  0  0  0  0
   16.3795   34.6309   34.5042 N   0  0  0  0  0  0  0  0  0  0  0  0
   15.9004   35.1933   36.8089 N   0  0  0  0  0  0  0  0  0  0  0  0
    9.8327   44.9919   32.1491 H   0  0  0  0  0  0  0  0  0  0  0  0
   11.3066   46.0951   34.4931 H   0  0  0  0  0  0  0  0  0  0  0  0
   11.9086   45.7284   32.9538 H   0  0  0  0  0  0  0  0  0  0  0  0
    7.8020   44.9999   33.5219 H   0  0  0  0  0  0  0  0  0  0  0  0
    8.4406   46.6607   33.3536 H   0  0  0  0  0  0  0  0  0  0  0  0
    9.9090   46.3849   37.7116 H   0  0  0  0  0  0  0  0  0  0  0  0
    8.2685   47.1242   37.7419 H   0  0  0  0  0  0  0  0  0  0  0  0
   11.9298   47.8218   37.3253 H   0  0  0  0  0  0  0  0  0  0  0  0
    8.0059   49.5641   37.7566 H   0  0  0  0  0  0  0  0  0  0  0  0
   12.9458   50.0415   37.7049 H   0  0  0  0  0  0  0  0  0  0  0  0
    9.0400   51.7749   38.1340 H   0  0  0  0  0  0  0  0  0  0  0  0
   11.5070   52.0188   38.1131 H   0  0  0  0  0  0  0  0  0  0  0  0
    9.8258   40.7204   31.7576 H   0  0  0  0  0  0  0  0  0  0  0  0
   11.3847   41.5506   31.4741 H   0  0  0  0  0  0  0  0  0  0  0  0
   11.7272   39.5288   30.3502 H   0  0  0  0  0  0  0  0  0  0  0  0
   10.1122   38.2730   32.6390 H   0  0  0  0  0  0  0  0  0  0  0  0
   13.6685   37.4592   31.2224 H   0  0  0  0  0  0  0  0  0  0  0  0
   10.0514   38.1109   29.7648 H   0  0  0  0  0  0  0  0  0  0  0  0
   11.2801   36.3128   32.5195 H   0  0  0  0  0  0  0  0  0  0  0  0
   10.8625   35.6960   30.4645 H   0  0  0  0  0  0  0  0  0  0  0  0
   12.3356   38.3581   34.7445 H   0  0  0  0  0  0  0  0  0  0  0  0
   16.7575   34.1788   32.4619 H   0  0  0  0  0  0  0  0  0  0  0  0
   15.3532   35.7355   37.5138 H   0  0  0  0  0  0  0  0  0  0  0  0
   16.6364   34.5315   37.1415 H   0  0  0  0  0  0  0  0  0  0  0  0
  1  2  2  0
  1  3  1  0
  3  4  1  0
  4  5  1  0
  6  1  1  0
  7  6  1  0
  6  8  1  0
  8  9  1  0
  9 10  1  0
  9 11  2  0
 10 12  1  0
 12 13  1  0
 13 14  2  0
 15 13  1  0
 14 16  1  0
 17 15  2  0
 16 18  2  0
 18 17  1  0
  4 19  2  0
  4 20  1  0
 21 20  1  0
 21 22  1  0
 22 23  1  0
 22 24  1  0
 23 25  1  0
 24 26  1  0
 24 27  1  0
 27 25  1  0
 25 28  1  0
 27 29  1  0
 30 28  1  0
 31 28  1  0
 32 30  2  0
 30 33  1  0
 34 31  2  0
 35 32  1  0
 33 36  2  0
 33 34  1  0
 37 35  2  0
 37 36  1  0
 36 38  1  0
  6 39  1  6
  7 40  1  0
  7 41  1  0
  8 42  1  0
  8 43  1  0
 12 44  1  0
 12 45  1  0
 14 46  1  0
 15 47  1  0
 16 48  1  0
 17 49  1  0
 18 50  1  0
 21 51  1  0
 21 52  1  0
 22 53  1  0
 24 54  1  0
 25 55  1  0
 26 56  1  0
 27 57  1  0
 29 58  1  0
 31 59  1  0
 35 60  1  0
 38 61  1  0
 38 62  1  0
M  CHG  1   5  -1
M  END
>  <EmbedRMS>  (185) 
0.08878898035521733

$$$$

     RDKit          3D

 62 65  0  0  0  0  0  0  0  0999 V2000
   10.2810   43.7752   33.8078 C   0  0  0  0  0  0  0  0  0  0  0  0
   11.4039   43.5912   34.3640 O   0  0  0  0  0  0  0  0  0  0  0  0
    9.3693   42.7288   33.6948 O   0  0  0  0  0  0  0  0  0  0  0  0
    9.8863   41.2338   34.2837 P   0  0  0  0  0  5  0  0  0  0  0  0
   10.3650   41.4712   35.8744 O   0  0  0  0  0  1  0  0  0  0  0  0
    9.9450   45.1235   33.2624 C   0  0  2  0  0  0  0  0  0  0  0  0
   11.0814   46.0234   33.4679 N   0  0  0  0  0  0  0  0  0  0  0  0
    8.6979   45.7039   33.9629 C   0  0  0  0  0  0  0  0  0  0  0  0
    7.4387   45.0115   33.5380 C   0  0  0  0  0  0  0  0  0  0  0  0
    6.8992   44.0062   34.3448 O   0  0  0  0  0  0  0  0  0  0  0  0
    6.8923   45.3215   32.4440 O   0  0  0  0  0  0  0  0  0  0  0  0
    5.7104   43.3018   34.0044 C   0  0  0  0  0  0  0  0  0  0  0  0
    5.4638   42.2281   35.0231 C   0  0  0  0  0  0  0  0  0  0  0  0
    5.6962   40.8783   34.7104 C   0  0  0  0  0  0  0  0  0  0  0  0
    5.0425   42.5726   36.3176 C   0  0  0  0  0  0  0  0  0  0  0  0
    5.4989   39.8878   35.6775 C   0  0  0  0  0  0  0  0  0  0  0  0
    4.8448   41.5789   37.2816 C   0  0  0  0  0  0  0  0  0  0  0  0
    5.0725   40.2375   36.9617 C   0  0  0  0  0  0  0  0  0  0  0  0
    8.8109   40.1892   34.2081 O   0  0  0  0  0  0  0  0  0  0  0  0
   11.2381   40.7901   33.3689 O   0  0  0  0  0  0  0  0  0  0  0  0
   10.9161   40.6896   31.9959 C   0  0  0  0  0  0  0  0  0  0  0  0
   11.5271   39.3897   31.4373 C   0  0  0  0  0  0  0  0  0  0  0  0
   12.7509   39.0914   32.0836 O   0  0  0  0  0  0  0  0  0  0  0  0
   10.6121   38.1916   31.6453 C   0  0  0  0  0  0  0  0  0  0  0  0
   12.9428   37.6851   32.0295 C   0  0  0  0  0  0  0  0  0  0  0  0
    9.6068   38.0859   30.6605 O   0  0  0  0  0  0  0  0  0  0  0  0
   11.5843   37.0185   31.6880 C   0  0  0  0  0  0  0  0  0  0  0  0
   13.4898   37.2163   33.3250 N   0  0  0  0  0  0  0  0  0  0  0  0
   11.6199   36.3062   30.4693 O   0  0  0  0  0  0  0  0  0  0  0  0
   14.4758   36.3263   33.5739 C   0  0  0  0  0  0  0  0  0  0  0  0
   13.1175   37.6307   34.5699 C   0  0  0  0  0  0  0  0  0  0  0  0
   15.2065   35.6139   32.6746 N   0  0  0  0  0  0  0  0  0  0  0  0
   14.6731   36.2267   34.9191 C   0  0  0  0  0  0  0  0  0  0  0  0
   13.8224   37.0450   35.5792 N   0  0  0  0  0  0  0  0  0  0  0  0
   16.1640   34.7596   33.1551 C   0  0  0  0  0  0  0  0  0  0  0  0
   15.6517   35.3489   35.4136 C   0  0  0  0  0  0  0  0  0  0  0  0
   16.3795   34.6310   34.5046 N   0  0  0  0  0  0  0  0  0  0  0  0
   15.9006   35.1931   36.8094 N   0  0  0  0  0  0  0  0  0  0  0  0
    9.7493   45.0293   32.1698 H   0  0  0  0  0  0  0  0  0  0  0  0
   10.8423   46.9594   33.0663 H   0  0  0  0  0  0  0  0  0  0  0  0
   11.8854   45.6773   32.8936 H   0  0  0  0  0  0  0  0  0  0  0  0
    8.8102   45.6315   35.0672 H   0  0  0  0  0  0  0  0  0  0  0  0
    8.5940   46.7825   33.7138 H   0  0  0  0  0  0  0  0  0  0  0  0
    5.8144   42.8610   32.9884 H   0  0  0  0  0  0  0  0  0  0  0  0
    4.8506   44.0064   33.9896 H   0  0  0  0  0  0  0  0  0  0  0  0
    6.0321   40.5924   33.7213 H   0  0  0  0  0  0  0  0  0  0  0  0
    4.8712   43.6096   36.5795 H   0  0  0  0  0  0  0  0  0  0  0  0
    5.6794   38.8492   35.4320 H   0  0  0  0  0  0  0  0  0  0  0  0
    4.5186   41.8492   38.2776 H   0  0  0  0  0  0  0  0  0  0  0  0
    4.9212   39.4697   37.7094 H   0  0  0  0  0  0  0  0  0  0  0  0
   11.3830   41.5524   31.4745 H   0  0  0  0  0  0  0  0  0  0  0  0
    9.8259   40.7191   31.7588 H   0  0  0  0  0  0  0  0  0  0  0  0
   11.7318   39.5336   30.3519 H   0  0  0  0  0  0  0  0  0  0  0  0
   10.1214   38.2684   32.6414 H   0  0  0  0  0  0  0  0  0  0  0  0
   13.6881   37.4704   31.2319 H   0  0  0  0  0  0  0  0  0  0  0  0
   10.0254   38.1752   29.7658 H   0  0  0  0  0  0  0  0  0  0  0  0
   11.2794   36.3123   32.4916 H   0  0  0  0  0  0  0  0  0  0  0  0
   11.9868   36.9100   29.7715 H   0  0  0  0  0  0  0  0  0  0  0  0
   12.3364   38.3595   34.7453 H   0  0  0  0  0  0  0  0  0  0  0  0
   16.7577   34.1794   32.4622 H   0  0  0  0  0  0  0  0  0  0  0  0
   16.6368   34.5316   37.1418 H   0  0  0  0  0  0  0  0  0  0  0  0
   15.3532   35.7351   37.5143 H   0  0  0  0  0  0  0  0  0  0  0  0
  1  2  2  0
  1  3  1  0
  3  4  1  0
  4  5  1  0
  6  1  1  0
  7  6  1  0
  6  8  1  0
  8  9  1  0
  9 10  1  0
  9 11  2  0
 10 12  1  0
 12 13  1  0
 13 14  2  0
 15 13  1  0
 14 16  1  0
 17 15  2  0
 16 18  2  0
 18 17  1  0
  4 19  2  0
  4 20  1  0
 21 20  1  0
 21 22  1  0
 22 23  1  0
 22 24  1  0
 23 25  1  0
 24 26  1  0
 24 27  1  0
 27 25  1  0
 25 28  1  0
 27 29  1  0
 30 28  1  0
 31 28  1  0
 32 30  2  0
 30 33  1  0
 34 31  2  0
 35 32  1  0
 33 36  2  0
 33 34  1  0
 37 35  2  0
 37 36  1  0
 36 38  1  0
  6 39  1  6
  7 40  1  0
  7 41  1  0
  8 42  1  0
  8 43  1  0
 12 44  1  0
 12 45  1  0
 14 46  1  0
 15 47  1  0
 16 48  1  0
 17 49  1  0
 18 50  1  0
 21 51  1  0
 21 52  1  0
 22 53  1  0
 24 54  1  0
 25 55  1  0
 26 56  1  0
 27 57  1  0
 29 58  1  0
 31 59  1  0
 35 60  1  0
 38 61  1  0
 38 62  1  0
M  CHG  1   5  -1
M  END
>  <EmbedRMS>  (186) 
0.08727108641629

$$$$

     RDKit          3D

 62 65  0  0  0  0  0  0  0  0999 V2000
   10.2810   43.7760   33.8097 C   0  0  0  0  0  0  0  0  0  0  0  0
   11.4070   43.5919   34.3591 O   0  0  0  0  0  0  0  0  0  0  0  0
    9.3695   42.7295   33.6982 O   0  0  0  0  0  0  0  0  0  0  0  0
    9.8866   41.2338   34.2840 P   0  0  0  0  0  5  0  0  0  0  0  0
   10.3665   41.4702   35.8745 O   0  0  0  0  0  1  0  0  0  0  0  0
    9.9502   45.1174   33.2492 C   0  0  2  0  0  0  0  0  0  0  0  0
   11.0755   46.0253   33.4792 N   0  0  0  0  0  0  0  0  0  0  0  0
    8.6576   45.6938   33.8696 C   0  0  0  0  0  0  0  0  0  0  0  0
    7.4386   44.9419   33.4298 C   0  0  0  0  0  0  0  0  0  0  0  0
    6.8300   44.0420   34.3122 O   0  0  0  0  0  0  0  0  0  0  0  0
    6.9923   45.1019   32.2610 O   0  0  0  0  0  0  0  0  0  0  0  0
    5.6934   43.2538   33.9669 C   0  0  0  0  0  0  0  0  0  0  0  0
    4.4624   44.1141   33.8845 C   0  0  0  0  0  0  0  0  0  0  0  0
    3.9443   44.7089   35.0463 C   0  0  0  0  0  0  0  0  0  0  0  0
    3.8355   44.3521   32.6498 C   0  0  0  0  0  0  0  0  0  0  0  0
    2.8104   45.5241   34.9746 C   0  0  0  0  0  0  0  0  0  0  0  0
    2.7017   45.1682   32.5824 C   0  0  0  0  0  0  0  0  0  0  0  0
    2.1892   45.7531   33.7437 C   0  0  0  0  0  0  0  0  0  0  0  0
    8.8081   40.1918   34.2085 O   0  0  0  0  0  0  0  0  0  0  0  0
   11.2378   40.7892   33.3680 O   0  0  0  0  0  0  0  0  0  0  0  0
   10.9155   40.6880   31.9950 C   0  0  0  0  0  0  0  0  0  0  0  0
   11.5261   39.3870   31.4363 C   0  0  0  0  0  0  0  0  0  0  0  0
   12.7492   39.0892   32.0817 O   0  0  0  0  0  0  0  0  0  0  0  0
   10.6123   38.1893   31.6461 C   0  0  0  0  0  0  0  0  0  0  0  0
   12.9373   37.6826   32.0300 C   0  0  0  0  0  0  0  0  0  0  0  0
    9.6149   38.0838   30.6538 O   0  0  0  0  0  0  0  0  0  0  0  0
   11.5793   37.0136   31.7014 C   0  0  0  0  0  0  0  0  0  0  0  0
   13.4906   37.2169   33.3242 N   0  0  0  0  0  0  0  0  0  0  0  0
   11.6216   36.3252   30.4725 O   0  0  0  0  0  0  0  0  0  0  0  0
   14.4763   36.3266   33.5731 C   0  0  0  0  0  0  0  0  0  0  0  0
   13.1181   37.6308   34.5694 C   0  0  0  0  0  0  0  0  0  0  0  0
   15.2065   35.6137   32.6740 N   0  0  0  0  0  0  0  0  0  0  0  0
   14.6735   36.2270   34.9185 C   0  0  0  0  0  0  0  0  0  0  0  0
   13.8229   37.0451   35.5787 N   0  0  0  0  0  0  0  0  0  0  0  0
   16.1639   34.7593   33.1547 C   0  0  0  0  0  0  0  0  0  0  0  0
   15.6519   35.3489   35.4132 C   0  0  0  0  0  0  0  0  0  0  0  0
   16.3794   34.6308   34.5042 N   0  0  0  0  0  0  0  0  0  0  0  0
   15.9006   35.1931   36.8090 N   0  0  0  0  0  0  0  0  0  0  0  0
    9.8120   45.0037   32.1507 H   0  0  0  0  0  0  0  0  0  0  0  0
   11.1186   46.2822   34.4933 H   0  0  0  0  0  0  0  0  0  0  0  0
   10.9076   46.9080   32.9432 H   0  0  0  0  0  0  0  0  0  0  0  0
    8.5390   46.7551   33.5608 H   0  0  0  0  0  0  0  0  0  0  0  0
    8.7255   45.6754   34.9795 H   0  0  0  0  0  0  0  0  0  0  0  0
    5.8828   42.7146   33.0127 H   0  0  0  0  0  0  0  0  0  0  0  0
    5.5432   42.4849   34.7539 H   0  0  0  0  0  0  0  0  0  0  0  0
    4.4200   44.5420   36.0050 H   0  0  0  0  0  0  0  0  0  0  0  0
    4.2239   43.9096   31.7410 H   0  0  0  0  0  0  0  0  0  0  0  0
    2.4142   45.9796   35.8730 H   0  0  0  0  0  0  0  0  0  0  0  0
    2.2214   45.3485   31.6293 H   0  0  0  0  0  0  0  0  0  0  0  0
    1.3120   46.3849   33.6896 H   0  0  0  0  0  0  0  0  0  0  0  0
    9.8253   40.7179   31.7584 H   0  0  0  0  0  0  0  0  0  0  0  0
   11.3827   41.5503   31.4729 H   0  0  0  0  0  0  0  0  0  0  0  0
   11.7290   39.5287   30.3502 H   0  0  0  0  0  0  0  0  0  0  0  0
   10.1139   38.2719   32.6379 H   0  0  0  0  0  0  0  0  0  0  0  0
   13.6725   37.4634   31.2240 H   0  0  0  0  0  0  0  0  0  0  0  0
   10.0534   38.1084   29.7638 H   0  0  0  0  0  0  0  0  0  0  0  0
   11.2645   36.3134   32.5107 H   0  0  0  0  0  0  0  0  0  0  0  0
   12.1548   35.5031   30.6316 H   0  0  0  0  0  0  0  0  0  0  0  0
   12.3361   38.3586   34.7450 H   0  0  0  0  0  0  0  0  0  0  0  0
   16.7573   34.1788   32.4619 H   0  0  0  0  0  0  0  0  0  0  0  0
   15.3533   35.7353   37.5139 H   0  0  0  0  0  0  0  0  0  0  0  0
   16.6366   34.5314   37.1415 H   0  0  0  0  0  0  0  0  0  0  0  0
  1  2  2  0
  1  3  1  0
  3  4  1  0
  4  5  1  0
  6  1  1  0
  7  6  1  0
  6  8  1  0
  8  9  1  0
  9 10  1  0
  9 11  2  0
 10 12  1  0
 12 13  1  0
 13 14  2  0
 15 13  1  0
 14 16  1  0
 17 15  2  0
 16 18  2  0
 18 17  1  0
  4 19  2  0
  4 20  1  0
 21 20  1  0
 21 22  1  0
 22 23  1  0
 22 24  1  0
 23 25  1  0
 24 26  1  0
 24 27  1  0
 27 25  1  0
 25 28  1  0
 27 29  1  0
 30 28  1  0
 31 28  1  0
 32 30  2  0
 30 33  1  0
 34 31  2  0
 35 32  1  0
 33 36  2  0
 33 34  1  0
 37 35  2  0
 37 36  1  0
 36 38  1  0
  6 39  1  6
  7 40  1  0
  7 41  1  0
  8 42  1  0
  8 43  1  0
 12 44  1  0
 12 45  1  0
 14 46  1  0
 15 47  1  0
 16 48  1  0
 17 49  1  0
 18 50  1  0
 21 51  1  0
 21 52  1  0
 22 53  1  0
 24 54  1  0
 25 55  1  0
 26 56  1  0
 27 57  1  0
 29 58  1  0
 31 59  1  0
 35 60  1  0
 38 61  1  0
 38 62  1  0
M  CHG  1   5  -1
M  END
>  <EmbedRMS>  (187) 
0.08799948516699324

$$$$

     RDKit          3D

 62 65  0  0  0  0  0  0  0  0999 V2000
   10.2862   43.7717   33.8042 C   0  0  0  0  0  0  0  0  0  0  0  0
   11.4114   43.5869   34.3545 O   0  0  0  0  0  0  0  0  0  0  0  0
    9.3673   42.7308   33.6997 O   0  0  0  0  0  0  0  0  0  0  0  0
    9.8854   41.2341   34.2843 P   0  0  0  0  0  5  0  0  0  0  0  0
   10.3651   41.4706   35.8749 O   0  0  0  0  0  1  0  0  0  0  0  0
    9.9565   45.1116   33.2470 C   0  0  2  0  0  0  0  0  0  0  0  0
   11.0672   46.0363   33.4855 N   0  0  0  0  0  0  0  0  0  0  0  0
    8.6226   45.6576   33.8053 C   0  0  0  0  0  0  0  0  0  0  0  0
    8.6164   45.7706   35.3016 C   0  0  0  0  0  0  0  0  0  0  0  0
    8.4028   44.6244   36.0758 O   0  0  0  0  0  0  0  0  0  0  0  0
    8.8330   46.8869   35.8475 O   0  0  0  0  0  0  0  0  0  0  0  0
    8.3873   44.6322   37.5010 C   0  0  0  0  0  0  0  0  0  0  0  0
    7.1299   45.2835   38.0075 C   0  0  0  0  0  0  0  0  0  0  0  0
    5.8882   44.6589   37.8073 C   0  0  0  0  0  0  0  0  0  0  0  0
    7.1788   46.5284   38.6570 C   0  0  0  0  0  0  0  0  0  0  0  0
    4.7129   45.2675   38.2587 C   0  0  0  0  0  0  0  0  0  0  0  0
    6.0010   47.1337   39.1068 C   0  0  0  0  0  0  0  0  0  0  0  0
    4.7693   46.5036   38.9086 C   0  0  0  0  0  0  0  0  0  0  0  0
    8.8079   40.1913   34.2084 O   0  0  0  0  0  0  0  0  0  0  0  0
   11.2380   40.7899   33.3690 O   0  0  0  0  0  0  0  0  0  0  0  0
   10.9186   40.6887   31.9952 C   0  0  0  0  0  0  0  0  0  0  0  0
   11.5179   39.3801   31.4400 C   0  0  0  0  0  0  0  0  0  0  0  0
   12.7484   39.0876   32.0751 O   0  0  0  0  0  0  0  0  0  0  0  0
   10.6053   38.1875   31.6657 C   0  0  0  0  0  0  0  0  0  0  0  0
   12.9361   37.6816   32.0288 C   0  0  0  0  0  0  0  0  0  0  0  0
    9.6423   38.0738   30.6445 O   0  0  0  0  0  0  0  0  0  0  0  0
   11.5765   37.0158   31.7046 C   0  0  0  0  0  0  0  0  0  0  0  0
   13.4908   37.2183   33.3237 N   0  0  0  0  0  0  0  0  0  0  0  0
   11.6102   36.3399   30.4680 O   0  0  0  0  0  0  0  0  0  0  0  0
   14.4762   36.3273   33.5728 C   0  0  0  0  0  0  0  0  0  0  0  0
   13.1181   37.6318   34.5689 C   0  0  0  0  0  0  0  0  0  0  0  0
   15.2063   35.6141   32.6739 N   0  0  0  0  0  0  0  0  0  0  0  0
   14.6733   36.2275   34.9182 C   0  0  0  0  0  0  0  0  0  0  0  0
   13.8226   37.0457   35.5783 N   0  0  0  0  0  0  0  0  0  0  0  0
   16.1635   34.7595   33.1546 C   0  0  0  0  0  0  0  0  0  0  0  0
   15.6515   35.3492   35.4130 C   0  0  0  0  0  0  0  0  0  0  0  0
   16.3791   34.6310   34.5041 N   0  0  0  0  0  0  0  0  0  0  0  0
   15.9002   35.1933   36.8089 N   0  0  0  0  0  0  0  0  0  0  0  0
    9.8398   44.9888   32.1479 H   0  0  0  0  0  0  0  0  0  0  0  0
   11.1539   46.2383   34.5083 H   0  0  0  0  0  0  0  0  0  0  0  0
   10.8569   46.9421   33.0064 H   0  0  0  0  0  0  0  0  0  0  0  0
    7.7921   44.9860   33.4974 H   0  0  0  0  0  0  0  0  0  0  0  0
    8.4145   46.6531   33.3561 H   0  0  0  0  0  0  0  0  0  0  0  0
    9.2980   45.1403   37.8876 H   0  0  0  0  0  0  0  0  0  0  0  0
    8.4192   43.5821   37.8610 H   0  0  0  0  0  0  0  0  0  0  0  0
    5.8320   43.7032   37.3007 H   0  0  0  0  0  0  0  0  0  0  0  0
    8.1253   47.0308   38.8132 H   0  0  0  0  0  0  0  0  0  0  0  0
    3.7583   44.7817   38.1031 H   0  0  0  0  0  0  0  0  0  0  0  0
    6.0431   48.0923   39.6076 H   0  0  0  0  0  0  0  0  0  0  0  0
    3.8587   46.9739   39.2568 H   0  0  0  0  0  0  0  0  0  0  0  0
   11.3989   41.5436   31.4730 H   0  0  0  0  0  0  0  0  0  0  0  0
    9.8306   40.7372   31.7556 H   0  0  0  0  0  0  0  0  0  0  0  0
   11.7000   39.5048   30.3475 H   0  0  0  0  0  0  0  0  0  0  0  0
   10.1103   38.2618   32.6637 H   0  0  0  0  0  0  0  0  0  0  0  0
   13.6696   37.4587   31.2223 H   0  0  0  0  0  0  0  0  0  0  0  0
    8.9000   38.6882   30.8814 H   0  0  0  0  0  0  0  0  0  0  0  0
   11.2690   36.3069   32.5091 H   0  0  0  0  0  0  0  0  0  0  0  0
   12.1427   35.5151   30.6153 H   0  0  0  0  0  0  0  0  0  0  0  0
   12.3359   38.3593   34.7445 H   0  0  0  0  0  0  0  0  0  0  0  0
   16.7569   34.1789   32.4618 H   0  0  0  0  0  0  0  0  0  0  0  0
   16.6362   34.5315   37.1413 H   0  0  0  0  0  0  0  0  0  0  0  0
   15.3530   35.7356   37.5138 H   0  0  0  0  0  0  0  0  0  0  0  0
  1  2  2  0
  1  3  1  0
  3  4  1  0
  4  5  1  0
  6  1  1  0
  7  6  1  0
  6  8  1  0
  8  9  1  0
  9 10  1  0
  9 11  2  0
 10 12  1  0
 12 13  1  0
 13 14  2  0
 15 13  1  0
 14 16  1  0
 17 15  2  0
 16 18  2  0
 18 17  1  0
  4 19  2  0
  4 20  1  0
 21 20  1  0
 21 22  1  0
 22 23  1  0
 22 24  1  0
 23 25  1  0
 24 26  1  0
 24 27  1  0
 27 25  1  0
 25 28  1  0
 27 29  1  0
 30 28  1  0
 31 28  1  0
 32 30  2  0
 30 33  1  0
 34 31  2  0
 35 32  1  0
 33 36  2  0
 33 34  1  0
 37 35  2  0
 37 36  1  0
 36 38  1  0
  6 39  1  6
  7 40  1  0
  7 41  1  0
  8 42  1  0
  8 43  1  0
 12 44  1  0
 12 45  1  0
 14 46  1  0
 15 47  1  0
 16 48  1  0
 17 49  1  0
 18 50  1  0
 21 51  1  0
 21 52  1  0
 22 53  1  0
 24 54  1  0
 25 55  1  0
 26 56  1  0
 27 57  1  0
 29 58  1  0
 31 59  1  0
 35 60  1  0
 38 61  1  0
 38 62  1  0
M  CHG  1   5  -1
M  END
>  <EmbedRMS>  (188) 
0.08920713561161742

$$$$

     RDKit          3D

 62 65  0  0  0  0  0  0  0  0999 V2000
   10.2811   43.7759   33.8096 C   0  0  0  0  0  0  0  0  0  0  0  0
   11.4071   43.5919   34.3592 O   0  0  0  0  0  0  0  0  0  0  0  0
    9.3699   42.7292   33.6979 O   0  0  0  0  0  0  0  0  0  0  0  0
    9.8872   41.2335   34.2837 P   0  0  0  0  0  5  0  0  0  0  0  0
   10.3661   41.4700   35.8744 O   0  0  0  0  0  1  0  0  0  0  0  0
    9.9503   45.1172   33.2490 C   0  0  2  0  0  0  0  0  0  0  0  0
   11.0753   46.0254   33.4794 N   0  0  0  0  0  0  0  0  0  0  0  0
    8.6572   45.6933   33.8687 C   0  0  0  0  0  0  0  0  0  0  0  0
    7.4387   44.9410   33.4284 C   0  0  0  0  0  0  0  0  0  0  0  0
    6.8303   44.0406   34.3103 O   0  0  0  0  0  0  0  0  0  0  0  0
    6.9928   45.1010   32.2594 O   0  0  0  0  0  0  0  0  0  0  0  0
    5.6949   43.2510   33.9641 C   0  0  0  0  0  0  0  0  0  0  0  0
    4.4630   44.1100   33.8799 C   0  0  0  0  0  0  0  0  0  0  0  0
    3.9438   44.7059   35.0407 C   0  0  0  0  0  0  0  0  0  0  0  0
    3.8363   44.3455   32.6446 C   0  0  0  0  0  0  0  0  0  0  0  0
    2.8090   45.5197   34.9673 C   0  0  0  0  0  0  0  0  0  0  0  0
    2.7017   45.1602   32.5756 C   0  0  0  0  0  0  0  0  0  0  0  0
    2.1881   45.7463   33.7358 C   0  0  0  0  0  0  0  0  0  0  0  0
    8.8087   40.1915   34.2076 O   0  0  0  0  0  0  0  0  0  0  0  0
   11.2394   40.7893   33.3686 O   0  0  0  0  0  0  0  0  0  0  0  0
   10.9199   40.6893   31.9949 C   0  0  0  0  0  0  0  0  0  0  0  0
   11.5172   39.3800   31.4395 C   0  0  0  0  0  0  0  0  0  0  0  0
   12.7480   39.0860   32.0730 O   0  0  0  0  0  0  0  0  0  0  0  0
   10.6031   38.1891   31.6666 C   0  0  0  0  0  0  0  0  0  0  0  0
   12.9335   37.6795   32.0279 C   0  0  0  0  0  0  0  0  0  0  0  0
    9.6396   38.0777   30.6457 O   0  0  0  0  0  0  0  0  0  0  0  0
   11.5739   37.0153   31.7057 C   0  0  0  0  0  0  0  0  0  0  0  0
   13.4903   37.2177   33.3230 N   0  0  0  0  0  0  0  0  0  0  0  0
   11.6210   36.3376   30.4695 O   0  0  0  0  0  0  0  0  0  0  0  0
   14.4761   36.3273   33.5725 C   0  0  0  0  0  0  0  0  0  0  0  0
   13.1178   37.6316   34.5683 C   0  0  0  0  0  0  0  0  0  0  0  0
   15.2063   35.6139   32.6737 N   0  0  0  0  0  0  0  0  0  0  0  0
   14.6733   36.2277   34.9179 C   0  0  0  0  0  0  0  0  0  0  0  0
   13.8225   37.0459   35.5779 N   0  0  0  0  0  0  0  0  0  0  0  0
   16.1636   34.7594   33.1546 C   0  0  0  0  0  0  0  0  0  0  0  0
   15.6515   35.3494   35.4129 C   0  0  0  0  0  0  0  0  0  0  0  0
   16.3791   34.6311   34.5041 N   0  0  0  0  0  0  0  0  0  0  0  0
   15.9001   35.1935   36.8088 N   0  0  0  0  0  0  0  0  0  0  0  0
    9.8126   45.0034   32.1505 H   0  0  0  0  0  0  0  0  0  0  0  0
   10.9074   46.9079   32.9433 H   0  0  0  0  0  0  0  0  0  0  0  0
   11.1179   46.2823   34.4935 H   0  0  0  0  0  0  0  0  0  0  0  0
    8.7246   45.6750   34.9787 H   0  0  0  0  0  0  0  0  0  0  0  0
    8.5385   46.7546   33.5598 H   0  0  0  0  0  0  0  0  0  0  0  0
    5.5445   42.4823   34.7512 H   0  0  0  0  0  0  0  0  0  0  0  0
    5.8859   42.7116   33.0103 H   0  0  0  0  0  0  0  0  0  0  0  0
    4.4193   44.5408   35.9997 H   0  0  0  0  0  0  0  0  0  0  0  0
    4.2256   43.9021   31.7366 H   0  0  0  0  0  0  0  0  0  0  0  0
    2.4120   45.9760   35.8648 H   0  0  0  0  0  0  0  0  0  0  0  0
    2.2216   45.3386   31.6221 H   0  0  0  0  0  0  0  0  0  0  0  0
    1.3103   46.3770   33.6804 H   0  0  0  0  0  0  0  0  0  0  0  0
   11.4016   41.5436   31.4731 H   0  0  0  0  0  0  0  0  0  0  0  0
    9.8320   40.7397   31.7550 H   0  0  0  0  0  0  0  0  0  0  0  0
   11.6982   39.5042   30.3468 H   0  0  0  0  0  0  0  0  0  0  0  0
   10.1091   38.2633   32.6649 H   0  0  0  0  0  0  0  0  0  0  0  0
   13.6655   37.4537   31.2206 H   0  0  0  0  0  0  0  0  0  0  0  0
    8.8966   38.6903   30.8851 H   0  0  0  0  0  0  0  0  0  0  0  0
   11.2845   36.3060   32.5175 H   0  0  0  0  0  0  0  0  0  0  0  0
   10.8522   35.7095   30.4590 H   0  0  0  0  0  0  0  0  0  0  0  0
   12.3352   38.3587   34.7439 H   0  0  0  0  0  0  0  0  0  0  0  0
   16.7570   34.1788   32.4619 H   0  0  0  0  0  0  0  0  0  0  0  0
   15.3529   35.7359   37.5136 H   0  0  0  0  0  0  0  0  0  0  0  0
   16.6360   34.5317   37.1413 H   0  0  0  0  0  0  0  0  0  0  0  0
  1  2  2  0
  1  3  1  0
  3  4  1  0
  4  5  1  0
  6  1  1  0
  7  6  1  0
  6  8  1  0
  8  9  1  0
  9 10  1  0
  9 11  2  0
 10 12  1  0
 12 13  1  0
 13 14  2  0
 15 13  1  0
 14 16  1  0
 17 15  2  0
 16 18  2  0
 18 17  1  0
  4 19  2  0
  4 20  1  0
 21 20  1  0
 21 22  1  0
 22 23  1  0
 22 24  1  0
 23 25  1  0
 24 26  1  0
 24 27  1  0
 27 25  1  0
 25 28  1  0
 27 29  1  0
 30 28  1  0
 31 28  1  0
 32 30  2  0
 30 33  1  0
 34 31  2  0
 35 32  1  0
 33 36  2  0
 33 34  1  0
 37 35  2  0
 37 36  1  0
 36 38  1  0
  6 39  1  6
  7 40  1  0
  7 41  1  0
  8 42  1  0
  8 43  1  0
 12 44  1  0
 12 45  1  0
 14 46  1  0
 15 47  1  0
 16 48  1  0
 17 49  1  0
 18 50  1  0
 21 51  1  0
 21 52  1  0
 22 53  1  0
 24 54  1  0
 25 55  1  0
 26 56  1  0
 27 57  1  0
 29 58  1  0
 31 59  1  0
 35 60  1  0
 38 61  1  0
 38 62  1  0
M  CHG  1   5  -1
M  END
>  <EmbedRMS>  (189) 
0.08952768012511675

$$$$

     RDKit          3D

 62 65  0  0  0  0  0  0  0  0999 V2000
   10.2829   43.7755   33.8076 C   0  0  0  0  0  0  0  0  0  0  0  0
   11.4085   43.5916   34.3577 O   0  0  0  0  0  0  0  0  0  0  0  0
    9.3666   42.7319   33.7016 O   0  0  0  0  0  0  0  0  0  0  0  0
    9.8861   41.2348   34.2846 P   0  0  0  0  0  5  0  0  0  0  0  0
   10.3662   41.4697   35.8751 O   0  0  0  0  0  1  0  0  0  0  0  0
    9.9534   45.1115   33.2434 C   0  0  2  0  0  0  0  0  0  0  0  0
   11.0726   46.0266   33.4849 N   0  0  0  0  0  0  0  0  0  0  0  0
    8.6389   45.6429   33.8536 C   0  0  0  0  0  0  0  0  0  0  0  0
    8.2422   46.9501   33.2427 C   0  0  0  0  0  0  0  0  0  0  0  0
    8.5302   48.1404   33.9196 O   0  0  0  0  0  0  0  0  0  0  0  0
    7.6881   46.9691   32.1097 O   0  0  0  0  0  0  0  0  0  0  0  0
    8.3339   49.4315   33.3483 C   0  0  0  0  0  0  0  0  0  0  0  0
    9.3740   49.6956   32.2944 C   0  0  0  0  0  0  0  0  0  0  0  0
    9.0263   49.7167   30.9333 C   0  0  0  0  0  0  0  0  0  0  0  0
   10.7157   49.8797   32.6658 C   0  0  0  0  0  0  0  0  0  0  0  0
   10.0077   49.9297   29.9600 C   0  0  0  0  0  0  0  0  0  0  0  0
   11.6940   50.0915   31.6894 C   0  0  0  0  0  0  0  0  0  0  0  0
   11.3402   50.1175   30.3376 C   0  0  0  0  0  0  0  0  0  0  0  0
    8.8089   40.1914   34.2082 O   0  0  0  0  0  0  0  0  0  0  0  0
   11.2386   40.7916   33.3693 O   0  0  0  0  0  0  0  0  0  0  0  0
   10.9187   40.6907   31.9959 C   0  0  0  0  0  0  0  0  0  0  0  0
   11.5175   39.3824   31.4412 C   0  0  0  0  0  0  0  0  0  0  0  0
   12.7494   39.0893   32.0757 O   0  0  0  0  0  0  0  0  0  0  0  0
   10.6036   38.1900   31.6660 C   0  0  0  0  0  0  0  0  0  0  0  0
   12.9401   37.6834   32.0276 C   0  0  0  0  0  0  0  0  0  0  0  0
    9.6376   38.0785   30.6474 O   0  0  0  0  0  0  0  0  0  0  0  0
   11.5803   37.0204   31.6937 C   0  0  0  0  0  0  0  0  0  0  0  0
   13.4902   37.2177   33.3237 N   0  0  0  0  0  0  0  0  0  0  0  0
   11.6118   36.3193   30.4680 O   0  0  0  0  0  0  0  0  0  0  0  0
   14.4759   36.3271   33.5731 C   0  0  0  0  0  0  0  0  0  0  0  0
   13.1176   37.6317   34.5688 C   0  0  0  0  0  0  0  0  0  0  0  0
   15.2064   35.6142   32.6742 N   0  0  0  0  0  0  0  0  0  0  0  0
   14.6729   36.2274   34.9184 C   0  0  0  0  0  0  0  0  0  0  0  0
   13.8221   37.0457   35.5783 N   0  0  0  0  0  0  0  0  0  0  0  0
   16.1637   34.7597   33.1549 C   0  0  0  0  0  0  0  0  0  0  0  0
   15.6514   35.3493   35.4133 C   0  0  0  0  0  0  0  0  0  0  0  0
   16.3791   34.6312   34.5044 N   0  0  0  0  0  0  0  0  0  0  0  0
   15.9001   35.1935   36.8091 N   0  0  0  0  0  0  0  0  0  0  0  0
    9.8209   44.9852   32.1456 H   0  0  0  0  0  0  0  0  0  0  0  0
   10.9522   46.8760   32.8871 H   0  0  0  0  0  0  0  0  0  0  0  0
   11.0670   46.3396   34.4837 H   0  0  0  0  0  0  0  0  0  0  0  0
    7.8194   44.9115   33.6797 H   0  0  0  0  0  0  0  0  0  0  0  0
    8.7497   45.7676   34.9531 H   0  0  0  0  0  0  0  0  0  0  0  0
    8.4312   50.1932   34.1504 H   0  0  0  0  0  0  0  0  0  0  0  0
    7.3034   49.5149   32.9382 H   0  0  0  0  0  0  0  0  0  0  0  0
    7.9993   49.5648   30.6254 H   0  0  0  0  0  0  0  0  0  0  0  0
   11.0030   49.8523   33.7097 H   0  0  0  0  0  0  0  0  0  0  0  0
    9.7355   49.9460   28.9126 H   0  0  0  0  0  0  0  0  0  0  0  0
   12.7269   50.2323   31.9807 H   0  0  0  0  0  0  0  0  0  0  0  0
   12.0986   50.2804   29.5829 H   0  0  0  0  0  0  0  0  0  0  0  0
    9.8307   40.7395   31.7563 H   0  0  0  0  0  0  0  0  0  0  0  0
   11.3992   41.5455   31.4737 H   0  0  0  0  0  0  0  0  0  0  0  0
   11.6989   39.5091   30.3489 H   0  0  0  0  0  0  0  0  0  0  0  0
   10.1130   38.2589   32.6664 H   0  0  0  0  0  0  0  0  0  0  0  0
   13.6800   37.4628   31.2265 H   0  0  0  0  0  0  0  0  0  0  0  0
    8.8952   38.6908   30.8891 H   0  0  0  0  0  0  0  0  0  0  0  0
   11.2830   36.3060   32.4929 H   0  0  0  0  0  0  0  0  0  0  0  0
   11.8859   36.9589   29.7593 H   0  0  0  0  0  0  0  0  0  0  0  0
   12.3360   38.3600   34.7442 H   0  0  0  0  0  0  0  0  0  0  0  0
   16.7572   34.1793   32.4621 H   0  0  0  0  0  0  0  0  0  0  0  0
   16.6362   34.5318   37.1416 H   0  0  0  0  0  0  0  0  0  0  0  0
   15.3528   35.7356   37.5140 H   0  0  0  0  0  0  0  0  0  0  0  0
  1  2  2  0
  1  3  1  0
  3  4  1  0
  4  5  1  0
  6  1  1  0
  7  6  1  0
  6  8  1  0
  8  9  1  0
  9 10  1  0
  9 11  2  0
 10 12  1  0
 12 13  1  0
 13 14  2  0
 15 13  1  0
 14 16  1  0
 17 15  2  0
 16 18  2  0
 18 17  1  0
  4 19  2  0
  4 20  1  0
 21 20  1  0
 21 22  1  0
 22 23  1  0
 22 24  1  0
 23 25  1  0
 24 26  1  0
 24 27  1  0
 27 25  1  0
 25 28  1  0
 27 29  1  0
 30 28  1  0
 31 28  1  0
 32 30  2  0
 30 33  1  0
 34 31  2  0
 35 32  1  0
 33 36  2  0
 33 34  1  0
 37 35  2  0
 37 36  1  0
 36 38  1  0
  6 39  1  6
  7 40  1  0
  7 41  1  0
  8 42  1  0
  8 43  1  0
 12 44  1  0
 12 45  1  0
 14 46  1  0
 15 47  1  0
 16 48  1  0
 17 49  1  0
 18 50  1  0
 21 51  1  0
 21 52  1  0
 22 53  1  0
 24 54  1  0
 25 55  1  0
 26 56  1  0
 27 57  1  0
 29 58  1  0
 31 59  1  0
 35 60  1  0
 38 61  1  0
 38 62  1  0
M  CHG  1   5  -1
M  END
>  <EmbedRMS>  (190) 
0.08801705049565507

$$$$

     RDKit          3D

 62 65  0  0  0  0  0  0  0  0999 V2000
   10.2871   43.7713   33.8024 C   0  0  0  0  0  0  0  0  0  0  0  0
   11.4093   43.5878   34.3593 O   0  0  0  0  0  0  0  0  0  0  0  0
    9.3678   42.7307   33.6984 O   0  0  0  0  0  0  0  0  0  0  0  0
    9.8849   41.2345   34.2847 P   0  0  0  0  0  5  0  0  0  0  0  0
   10.3649   41.4713   35.8752 O   0  0  0  0  0  1  0  0  0  0  0  0
    9.9521   45.1155   33.2554 C   0  0  2  0  0  0  0  0  0  0  0  0
   11.0707   46.0335   33.4778 N   0  0  0  0  0  0  0  0  0  0  0  0
    8.6621   45.6649   33.8979 C   0  0  0  0  0  0  0  0  0  0  0  0
    8.7952   45.8398   35.3817 C   0  0  0  0  0  0  0  0  0  0  0  0
    8.5595   44.7477   36.2246 O   0  0  0  0  0  0  0  0  0  0  0  0
    9.1583   46.9523   35.8521 O   0  0  0  0  0  0  0  0  0  0  0  0
    8.6734   44.8140   37.6439 C   0  0  0  0  0  0  0  0  0  0  0  0
    7.5278   45.5957   38.2258 C   0  0  0  0  0  0  0  0  0  0  0  0
    6.2238   45.0783   38.1637 C   0  0  0  0  0  0  0  0  0  0  0  0
    7.7425   46.8559   38.8088 C   0  0  0  0  0  0  0  0  0  0  0  0
    5.1511   45.8079   38.6857 C   0  0  0  0  0  0  0  0  0  0  0  0
    6.6669   47.5824   39.3295 C   0  0  0  0  0  0  0  0  0  0  0  0
    5.3725   47.0586   39.2688 C   0  0  0  0  0  0  0  0  0  0  0  0
    8.8074   40.1916   34.2092 O   0  0  0  0  0  0  0  0  0  0  0  0
   11.2367   40.7898   33.3695 O   0  0  0  0  0  0  0  0  0  0  0  0
   10.9156   40.6897   31.9963 C   0  0  0  0  0  0  0  0  0  0  0  0
   11.5270   39.3898   31.4375 C   0  0  0  0  0  0  0  0  0  0  0  0
   12.7508   39.0916   32.0838 O   0  0  0  0  0  0  0  0  0  0  0  0
   10.6122   38.1916   31.6452 C   0  0  0  0  0  0  0  0  0  0  0  0
   12.9429   37.6852   32.0295 C   0  0  0  0  0  0  0  0  0  0  0  0
    9.6070   38.0858   30.6603 O   0  0  0  0  0  0  0  0  0  0  0  0
   11.5845   37.0186   31.6879 C   0  0  0  0  0  0  0  0  0  0  0  0
   13.4899   37.2163   33.3250 N   0  0  0  0  0  0  0  0  0  0  0  0
   11.6201   36.3063   30.4693 O   0  0  0  0  0  0  0  0  0  0  0  0
   14.4759   36.3263   33.5738 C   0  0  0  0  0  0  0  0  0  0  0  0
   13.1176   37.6307   34.5699 C   0  0  0  0  0  0  0  0  0  0  0  0
   15.2065   35.6139   32.6746 N   0  0  0  0  0  0  0  0  0  0  0  0
   14.6731   36.2267   34.9191 C   0  0  0  0  0  0  0  0  0  0  0  0
   13.8224   37.0450   35.5792 N   0  0  0  0  0  0  0  0  0  0  0  0
   16.1640   34.7596   33.1551 C   0  0  0  0  0  0  0  0  0  0  0  0
   15.6517   35.3489   35.4136 C   0  0  0  0  0  0  0  0  0  0  0  0
   16.3795   34.6310   34.5046 N   0  0  0  0  0  0  0  0  0  0  0  0
   15.9006   35.1931   36.8094 N   0  0  0  0  0  0  0  0  0  0  0  0
    9.7785   45.0091   32.1608 H   0  0  0  0  0  0  0  0  0  0  0  0
   10.8085   46.9725   33.0982 H   0  0  0  0  0  0  0  0  0  0  0  0
   11.8808   45.7138   32.8971 H   0  0  0  0  0  0  0  0  0  0  0  0
    8.4030   46.6409   33.4325 H   0  0  0  0  0  0  0  0  0  0  0  0
    7.8160   44.9746   33.6895 H   0  0  0  0  0  0  0  0  0  0  0  0
    8.6473   43.7807   38.0498 H   0  0  0  0  0  0  0  0  0  0  0  0
    9.6557   45.2532   37.9255 H   0  0  0  0  0  0  0  0  0  0  0  0
    6.0397   44.1122   37.7099 H   0  0  0  0  0  0  0  0  0  0  0  0
    8.7391   47.2766   38.8584 H   0  0  0  0  0  0  0  0  0  0  0  0
    4.1480   45.4044   38.6365 H   0  0  0  0  0  0  0  0  0  0  0  0
    6.8368   48.5524   39.7786 H   0  0  0  0  0  0  0  0  0  0  0  0
    4.5412   47.6226   39.6717 H   0  0  0  0  0  0  0  0  0  0  0  0
   11.3827   41.5526   31.4753 H   0  0  0  0  0  0  0  0  0  0  0  0
    9.8255   40.7191   31.7589 H   0  0  0  0  0  0  0  0  0  0  0  0
   11.7317   39.5340   30.3521 H   0  0  0  0  0  0  0  0  0  0  0  0
   10.1214   38.2682   32.6413 H   0  0  0  0  0  0  0  0  0  0  0  0
   13.6882   37.4707   31.2319 H   0  0  0  0  0  0  0  0  0  0  0  0
   10.0257   38.1752   29.7656 H   0  0  0  0  0  0  0  0  0  0  0  0
   11.2795   36.3123   32.4915 H   0  0  0  0  0  0  0  0  0  0  0  0
   11.9872   36.9099   29.7714 H   0  0  0  0  0  0  0  0  0  0  0  0
   12.3365   38.3595   34.7453 H   0  0  0  0  0  0  0  0  0  0  0  0
   16.7577   34.1794   32.4622 H   0  0  0  0  0  0  0  0  0  0  0  0
   15.3532   35.7352   37.5143 H   0  0  0  0  0  0  0  0  0  0  0  0
   16.6368   34.5316   37.1418 H   0  0  0  0  0  0  0  0  0  0  0  0
  1  2  2  0
  1  3  1  0
  3  4  1  0
  4  5  1  0
  6  1  1  0
  7  6  1  0
  6  8  1  0
  8  9  1  0
  9 10  1  0
  9 11  2  0
 10 12  1  0
 12 13  1  0
 13 14  2  0
 15 13  1  0
 14 16  1  0
 17 15  2  0
 16 18  2  0
 18 17  1  0
  4 19  2  0
  4 20  1  0
 21 20  1  0
 21 22  1  0
 22 23  1  0
 22 24  1  0
 23 25  1  0
 24 26  1  0
 24 27  1  0
 27 25  1  0
 25 28  1  0
 27 29  1  0
 30 28  1  0
 31 28  1  0
 32 30  2  0
 30 33  1  0
 34 31  2  0
 35 32  1  0
 33 36  2  0
 33 34  1  0
 37 35  2  0
 37 36  1  0
 36 38  1  0
  6 39  1  6
  7 40  1  0
  7 41  1  0
  8 42  1  0
  8 43  1  0
 12 44  1  0
 12 45  1  0
 14 46  1  0
 15 47  1  0
 16 48  1  0
 17 49  1  0
 18 50  1  0
 21 51  1  0
 21 52  1  0
 22 53  1  0
 24 54  1  0
 25 55  1  0
 26 56  1  0
 27 57  1  0
 29 58  1  0
 31 59  1  0
 35 60  1  0
 38 61  1  0
 38 62  1  0
M  CHG  1   5  -1
M  END
>  <EmbedRMS>  (191) 
0.08701419910011042

$$$$

     RDKit          3D

 62 65  0  0  0  0  0  0  0  0999 V2000
   10.2844   43.7743   33.8068 C   0  0  0  0  0  0  0  0  0  0  0  0
   11.4069   43.5903   34.3635 O   0  0  0  0  0  0  0  0  0  0  0  0
    9.3680   42.7310   33.6987 O   0  0  0  0  0  0  0  0  0  0  0  0
    9.8859   41.2341   34.2835 P   0  0  0  0  0  5  0  0  0  0  0  0
   10.3663   41.4697   35.8740 O   0  0  0  0  0  1  0  0  0  0  0  0
    9.9493   45.1163   33.2545 C   0  0  2  0  0  0  0  0  0  0  0  0
   11.0753   46.0280   33.4735 N   0  0  0  0  0  0  0  0  0  0  0  0
    8.6782   45.6536   33.9413 C   0  0  0  0  0  0  0  0  0  0  0  0
    8.1758   46.8981   33.2768 C   0  0  0  0  0  0  0  0  0  0  0  0
    7.5628   46.8066   32.0221 O   0  0  0  0  0  0  0  0  0  0  0  0
    8.3304   48.0162   33.8397 O   0  0  0  0  0  0  0  0  0  0  0  0
    7.0353   47.9329   31.3249 C   0  0  0  0  0  0  0  0  0  0  0  0
    5.7769   48.4197   31.9901 C   0  0  0  0  0  0  0  0  0  0  0  0
    5.7506   49.6561   32.6570 C   0  0  0  0  0  0  0  0  0  0  0  0
    4.6210   47.6224   31.9711 C   0  0  0  0  0  0  0  0  0  0  0  0
    4.5806   50.0901   33.2882 C   0  0  0  0  0  0  0  0  0  0  0  0
    3.4530   48.0601   32.6034 C   0  0  0  0  0  0  0  0  0  0  0  0
    3.4326   49.2933   33.2609 C   0  0  0  0  0  0  0  0  0  0  0  0
    8.8081   40.1914   34.2081 O   0  0  0  0  0  0  0  0  0  0  0  0
   11.2374   40.7899   33.3677 O   0  0  0  0  0  0  0  0  0  0  0  0
   10.9156   40.6881   31.9946 C   0  0  0  0  0  0  0  0  0  0  0  0
   11.5262   39.3870   31.4363 C   0  0  0  0  0  0  0  0  0  0  0  0
   12.7492   39.0892   32.0818 O   0  0  0  0  0  0  0  0  0  0  0  0
   10.6123   38.1893   31.6461 C   0  0  0  0  0  0  0  0  0  0  0  0
   12.9374   37.6826   32.0301 C   0  0  0  0  0  0  0  0  0  0  0  0
    9.6150   38.0838   30.6538 O   0  0  0  0  0  0  0  0  0  0  0  0
   11.5793   37.0136   31.7014 C   0  0  0  0  0  0  0  0  0  0  0  0
   13.4906   37.2169   33.3242 N   0  0  0  0  0  0  0  0  0  0  0  0
   11.6216   36.3252   30.4725 O   0  0  0  0  0  0  0  0  0  0  0  0
   14.4763   36.3266   33.5731 C   0  0  0  0  0  0  0  0  0  0  0  0
   13.1181   37.6308   34.5694 C   0  0  0  0  0  0  0  0  0  0  0  0
   15.2066   35.6137   32.6740 N   0  0  0  0  0  0  0  0  0  0  0  0
   14.6736   36.2270   34.9185 C   0  0  0  0  0  0  0  0  0  0  0  0
   13.8229   37.0451   35.5787 N   0  0  0  0  0  0  0  0  0  0  0  0
   16.1639   34.7593   33.1547 C   0  0  0  0  0  0  0  0  0  0  0  0
   15.6519   35.3489   35.4132 C   0  0  0  0  0  0  0  0  0  0  0  0
   16.3795   34.6308   34.5042 N   0  0  0  0  0  0  0  0  0  0  0  0
   15.9006   35.1931   36.8090 N   0  0  0  0  0  0  0  0  0  0  0  0
    9.7645   45.0043   32.1618 H   0  0  0  0  0  0  0  0  0  0  0  0
   10.8434   46.9569   33.0535 H   0  0  0  0  0  0  0  0  0  0  0  0
   11.8941   45.6796   32.9222 H   0  0  0  0  0  0  0  0  0  0  0  0
    8.8840   45.8533   35.0165 H   0  0  0  0  0  0  0  0  0  0  0  0
    7.8674   44.8948   33.8886 H   0  0  0  0  0  0  0  0  0  0  0  0
    6.7966   47.6262   30.2846 H   0  0  0  0  0  0  0  0  0  0  0  0
    7.8036   48.7348   31.2634 H   0  0  0  0  0  0  0  0  0  0  0  0
    6.6337   50.2820   32.6909 H   0  0  0  0  0  0  0  0  0  0  0  0
    4.6266   46.6629   31.4687 H   0  0  0  0  0  0  0  0  0  0  0  0
    4.5644   51.0436   33.8002 H   0  0  0  0  0  0  0  0  0  0  0  0
    2.5644   47.4426   32.5852 H   0  0  0  0  0  0  0  0  0  0  0  0
    2.5281   49.6305   33.7505 H   0  0  0  0  0  0  0  0  0  0  0  0
    9.8254   40.7180   31.7578 H   0  0  0  0  0  0  0  0  0  0  0  0
   11.3829   41.5502   31.4724 H   0  0  0  0  0  0  0  0  0  0  0  0
   11.7292   39.5285   30.3502 H   0  0  0  0  0  0  0  0  0  0  0  0
   10.1140   38.2719   32.6379 H   0  0  0  0  0  0  0  0  0  0  0  0
   13.6726   37.4635   31.2240 H   0  0  0  0  0  0  0  0  0  0  0  0
   10.0535   38.1085   29.7638 H   0  0  0  0  0  0  0  0  0  0  0  0
   11.2646   36.3134   32.5107 H   0  0  0  0  0  0  0  0  0  0  0  0
   12.1549   35.5031   30.6316 H   0  0  0  0  0  0  0  0  0  0  0  0
   12.3362   38.3586   34.7450 H   0  0  0  0  0  0  0  0  0  0  0  0
   16.7574   34.1789   32.4619 H   0  0  0  0  0  0  0  0  0  0  0  0
   15.3533   35.7353   37.5139 H   0  0  0  0  0  0  0  0  0  0  0  0
   16.6366   34.5314   37.1415 H   0  0  0  0  0  0  0  0  0  0  0  0
  1  2  2  0
  1  3  1  0
  3  4  1  0
  4  5  1  0
  6  1  1  0
  7  6  1  0
  6  8  1  0
  8  9  1  0
  9 10  1  0
  9 11  2  0
 10 12  1  0
 12 13  1  0
 13 14  2  0
 15 13  1  0
 14 16  1  0
 17 15  2  0
 16 18  2  0
 18 17  1  0
  4 19  2  0
  4 20  1  0
 21 20  1  0
 21 22  1  0
 22 23  1  0
 22 24  1  0
 23 25  1  0
 24 26  1  0
 24 27  1  0
 27 25  1  0
 25 28  1  0
 27 29  1  0
 30 28  1  0
 31 28  1  0
 32 30  2  0
 30 33  1  0
 34 31  2  0
 35 32  1  0
 33 36  2  0
 33 34  1  0
 37 35  2  0
 37 36  1  0
 36 38  1  0
  6 39  1  6
  7 40  1  0
  7 41  1  0
  8 42  1  0
  8 43  1  0
 12 44  1  0
 12 45  1  0
 14 46  1  0
 15 47  1  0
 16 48  1  0
 17 49  1  0
 18 50  1  0
 21 51  1  0
 21 52  1  0
 22 53  1  0
 24 54  1  0
 25 55  1  0
 26 56  1  0
 27 57  1  0
 29 58  1  0
 31 59  1  0
 35 60  1  0
 38 61  1  0
 38 62  1  0
M  CHG  1   5  -1
M  END
>  <EmbedRMS>  (192) 
0.08799362631578751

$$$$

     RDKit          3D

 62 65  0  0  0  0  0  0  0  0999 V2000
   10.2844   43.7741   33.8069 C   0  0  0  0  0  0  0  0  0  0  0  0
   11.4069   43.5902   34.3637 O   0  0  0  0  0  0  0  0  0  0  0  0
    9.3679   42.7311   33.6990 O   0  0  0  0  0  0  0  0  0  0  0  0
    9.8858   41.2341   34.2835 P   0  0  0  0  0  5  0  0  0  0  0  0
   10.3663   41.4696   35.8741 O   0  0  0  0  0  1  0  0  0  0  0  0
    9.9498   45.1157   33.2540 C   0  0  2  0  0  0  0  0  0  0  0  0
   11.0751   46.0287   33.4735 N   0  0  0  0  0  0  0  0  0  0  0  0
    8.6757   45.6518   33.9375 C   0  0  0  0  0  0  0  0  0  0  0  0
    8.2024   46.9167   33.2923 C   0  0  0  0  0  0  0  0  0  0  0  0
    7.7007   46.8740   31.9871 O   0  0  0  0  0  0  0  0  0  0  0  0
    8.2938   48.0111   33.9129 O   0  0  0  0  0  0  0  0  0  0  0  0
    7.4490   48.0429   31.2115 C   0  0  0  0  0  0  0  0  0  0  0  0
    8.7476   48.7050   30.8382 C   0  0  0  0  0  0  0  0  0  0  0  0
    9.0620   49.9883   31.3158 C   0  0  0  0  0  0  0  0  0  0  0  0
    9.6749   48.0226   30.0339 C   0  0  0  0  0  0  0  0  0  0  0  0
   10.2856   50.5806   30.9872 C   0  0  0  0  0  0  0  0  0  0  0  0
   10.8976   48.6178   29.7089 C   0  0  0  0  0  0  0  0  0  0  0  0
   11.2025   49.8961   30.1845 C   0  0  0  0  0  0  0  0  0  0  0  0
    8.8081   40.1914   34.2081 O   0  0  0  0  0  0  0  0  0  0  0  0
   11.2374   40.7900   33.3677 O   0  0  0  0  0  0  0  0  0  0  0  0
   10.9156   40.6882   31.9946 C   0  0  0  0  0  0  0  0  0  0  0  0
   11.5262   39.3870   31.4363 C   0  0  0  0  0  0  0  0  0  0  0  0
   12.7492   39.0892   32.0818 O   0  0  0  0  0  0  0  0  0  0  0  0
   10.6123   38.1893   31.6461 C   0  0  0  0  0  0  0  0  0  0  0  0
   12.9374   37.6826   32.0301 C   0  0  0  0  0  0  0  0  0  0  0  0
    9.6150   38.0839   30.6538 O   0  0  0  0  0  0  0  0  0  0  0  0
   11.5793   37.0136   31.7014 C   0  0  0  0  0  0  0  0  0  0  0  0
   13.4906   37.2169   33.3242 N   0  0  0  0  0  0  0  0  0  0  0  0
   11.6216   36.3252   30.4725 O   0  0  0  0  0  0  0  0  0  0  0  0
   14.4763   36.3266   33.5731 C   0  0  0  0  0  0  0  0  0  0  0  0
   13.1182   37.6308   34.5694 C   0  0  0  0  0  0  0  0  0  0  0  0
   15.2065   35.6137   32.6740 N   0  0  0  0  0  0  0  0  0  0  0  0
   14.6736   36.2270   34.9185 C   0  0  0  0  0  0  0  0  0  0  0  0
   13.8229   37.0451   35.5787 N   0  0  0  0  0  0  0  0  0  0  0  0
   16.1639   34.7593   33.1547 C   0  0  0  0  0  0  0  0  0  0  0  0
   15.6519   35.3489   35.4132 C   0  0  0  0  0  0  0  0  0  0  0  0
   16.3795   34.6308   34.5042 N   0  0  0  0  0  0  0  0  0  0  0  0
   15.9006   35.1931   36.8090 N   0  0  0  0  0  0  0  0  0  0  0  0
    9.7675   45.0034   32.1609 H   0  0  0  0  0  0  0  0  0  0  0  0
   10.8465   46.9549   33.0454 H   0  0  0  0  0  0  0  0  0  0  0  0
   11.8964   45.6772   32.9279 H   0  0  0  0  0  0  0  0  0  0  0  0
    7.8571   44.9042   33.8555 H   0  0  0  0  0  0  0  0  0  0  0  0
    8.8707   45.8257   35.0192 H   0  0  0  0  0  0  0  0  0  0  0  0
    6.9170   47.7464   30.2831 H   0  0  0  0  0  0  0  0  0  0  0  0
    6.7810   48.7328   31.7725 H   0  0  0  0  0  0  0  0  0  0  0  0
    8.3651   50.5275   31.9452 H   0  0  0  0  0  0  0  0  0  0  0  0
    9.4527   47.0284   29.6660 H   0  0  0  0  0  0  0  0  0  0  0  0
   10.5242   51.5692   31.3575 H   0  0  0  0  0  0  0  0  0  0  0  0
   11.6098   48.0870   29.0904 H   0  0  0  0  0  0  0  0  0  0  0  0
   12.1498   50.3553   29.9329 H   0  0  0  0  0  0  0  0  0  0  0  0
   11.3829   41.5503   31.4724 H   0  0  0  0  0  0  0  0  0  0  0  0
    9.8254   40.7181   31.7577 H   0  0  0  0  0  0  0  0  0  0  0  0
   11.7292   39.5285   30.3502 H   0  0  0  0  0  0  0  0  0  0  0  0
   10.1140   38.2720   32.6379 H   0  0  0  0  0  0  0  0  0  0  0  0
   13.6726   37.4635   31.2240 H   0  0  0  0  0  0  0  0  0  0  0  0
   10.0535   38.1084   29.7638 H   0  0  0  0  0  0  0  0  0  0  0  0
   11.2646   36.3135   32.5107 H   0  0  0  0  0  0  0  0  0  0  0  0
   12.1549   35.5032   30.6316 H   0  0  0  0  0  0  0  0  0  0  0  0
   12.3362   38.3586   34.7450 H   0  0  0  0  0  0  0  0  0  0  0  0
   16.7574   34.1788   32.4619 H   0  0  0  0  0  0  0  0  0  0  0  0
   15.3533   35.7353   37.5139 H   0  0  0  0  0  0  0  0  0  0  0  0
   16.6366   34.5314   37.1415 H   0  0  0  0  0  0  0  0  0  0  0  0
  1  2  2  0
  1  3  1  0
  3  4  1  0
  4  5  1  0
  6  1  1  0
  7  6  1  0
  6  8  1  0
  8  9  1  0
  9 10  1  0
  9 11  2  0
 10 12  1  0
 12 13  1  0
 13 14  2  0
 15 13  1  0
 14 16  1  0
 17 15  2  0
 16 18  2  0
 18 17  1  0
  4 19  2  0
  4 20  1  0
 21 20  1  0
 21 22  1  0
 22 23  1  0
 22 24  1  0
 23 25  1  0
 24 26  1  0
 24 27  1  0
 27 25  1  0
 25 28  1  0
 27 29  1  0
 30 28  1  0
 31 28  1  0
 32 30  2  0
 30 33  1  0
 34 31  2  0
 35 32  1  0
 33 36  2  0
 33 34  1  0
 37 35  2  0
 37 36  1  0
 36 38  1  0
  6 39  1  6
  7 40  1  0
  7 41  1  0
  8 42  1  0
  8 43  1  0
 12 44  1  0
 12 45  1  0
 14 46  1  0
 15 47  1  0
 16 48  1  0
 17 49  1  0
 18 50  1  0
 21 51  1  0
 21 52  1  0
 22 53  1  0
 24 54  1  0
 25 55  1  0
 26 56  1  0
 27 57  1  0
 29 58  1  0
 31 59  1  0
 35 60  1  0
 38 61  1  0
 38 62  1  0
M  CHG  1   5  -1
M  END
>  <EmbedRMS>  (193) 
0.0879826196840829

$$$$

     RDKit          3D

 62 65  0  0  0  0  0  0  0  0999 V2000
   10.2863   43.7710   33.8101 C   0  0  0  0  0  0  0  0  0  0  0  0
   11.4101   43.5818   34.3618 O   0  0  0  0  0  0  0  0  0  0  0  0
    9.3669   42.7308   33.7022 O   0  0  0  0  0  0  0  0  0  0  0  0
    9.8847   41.2330   34.2845 P   0  0  0  0  0  5  0  0  0  0  0  0
   10.3648   41.4677   35.8752 O   0  0  0  0  0  1  0  0  0  0  0  0
    9.9611   45.1121   33.2468 C   0  0  2  0  0  0  0  0  0  0  0  0
   11.0652   46.0482   33.4748 N   0  0  0  0  0  0  0  0  0  0  0  0
    8.6648   45.6570   33.8692 C   0  0  0  0  0  0  0  0  0  0  0  0
    8.2708   46.9564   33.2383 C   0  0  0  0  0  0  0  0  0  0  0  0
    7.6698   46.9513   31.9767 O   0  0  0  0  0  0  0  0  0  0  0  0
    8.5143   48.0426   33.8317 O   0  0  0  0  0  0  0  0  0  0  0  0
    7.2989   48.1454   31.2975 C   0  0  0  0  0  0  0  0  0  0  0  0
    6.6995   47.7912   29.9686 C   0  0  0  0  0  0  0  0  0  0  0  0
    7.5254   47.6049   28.8477 C   0  0  0  0  0  0  0  0  0  0  0  0
    5.3167   47.5748   29.8493 C   0  0  0  0  0  0  0  0  0  0  0  0
    6.9704   47.2362   27.6181 C   0  0  0  0  0  0  0  0  0  0  0  0
    4.7657   47.2062   28.6178 C   0  0  0  0  0  0  0  0  0  0  0  0
    5.5915   47.0395   27.5026 C   0  0  0  0  0  0  0  0  0  0  0  0
    8.8073   40.1902   34.2075 O   0  0  0  0  0  0  0  0  0  0  0  0
   11.2377   40.7903   33.3696 O   0  0  0  0  0  0  0  0  0  0  0  0
   10.9186   40.6905   31.9961 C   0  0  0  0  0  0  0  0  0  0  0  0
   11.5174   39.3824   31.4411 C   0  0  0  0  0  0  0  0  0  0  0  0
   12.7494   39.0893   32.0756 O   0  0  0  0  0  0  0  0  0  0  0  0
   10.6036   38.1899   31.6659 C   0  0  0  0  0  0  0  0  0  0  0  0
   12.9401   37.6834   32.0276 C   0  0  0  0  0  0  0  0  0  0  0  0
    9.6376   38.0785   30.6474 O   0  0  0  0  0  0  0  0  0  0  0  0
   11.5803   37.0204   31.6937 C   0  0  0  0  0  0  0  0  0  0  0  0
   13.4902   37.2177   33.3237 N   0  0  0  0  0  0  0  0  0  0  0  0
   11.6118   36.3193   30.4680 O   0  0  0  0  0  0  0  0  0  0  0  0
   14.4759   36.3271   33.5731 C   0  0  0  0  0  0  0  0  0  0  0  0
   13.1176   37.6317   34.5688 C   0  0  0  0  0  0  0  0  0  0  0  0
   15.2064   35.6141   32.6742 N   0  0  0  0  0  0  0  0  0  0  0  0
   14.6729   36.2274   34.9184 C   0  0  0  0  0  0  0  0  0  0  0  0
   13.8221   37.0457   35.5783 N   0  0  0  0  0  0  0  0  0  0  0  0
   16.1637   34.7597   33.1549 C   0  0  0  0  0  0  0  0  0  0  0  0
   15.6514   35.3493   35.4133 C   0  0  0  0  0  0  0  0  0  0  0  0
   16.3791   34.6312   34.5044 N   0  0  0  0  0  0  0  0  0  0  0  0
   15.9001   35.1935   36.8091 N   0  0  0  0  0  0  0  0  0  0  0  0
    9.8117   44.9939   32.1504 H   0  0  0  0  0  0  0  0  0  0  0  0
   11.9220   45.7027   32.9831 H   0  0  0  0  0  0  0  0  0  0  0  0
   11.2745   46.1185   34.4983 H   0  0  0  0  0  0  0  0  0  0  0  0
    7.8367   44.9319   33.7131 H   0  0  0  0  0  0  0  0  0  0  0  0
    8.7944   45.7932   34.9659 H   0  0  0  0  0  0  0  0  0  0  0  0
    6.5656   48.7135   31.9112 H   0  0  0  0  0  0  0  0  0  0  0  0
    8.1951   48.7877   31.1516 H   0  0  0  0  0  0  0  0  0  0  0  0
    8.5966   47.7440   28.9266 H   0  0  0  0  0  0  0  0  0  0  0  0
    4.6669   47.6905   30.7081 H   0  0  0  0  0  0  0  0  0  0  0  0
    7.6100   47.0990   26.7557 H   0  0  0  0  0  0  0  0  0  0  0  0
    3.6989   47.0460   28.5291 H   0  0  0  0  0  0  0  0  0  0  0  0
    5.1637   46.7527   26.5506 H   0  0  0  0  0  0  0  0  0  0  0  0
    9.8308   40.7397   31.7558 H   0  0  0  0  0  0  0  0  0  0  0  0
   11.3997   41.5455   31.4747 H   0  0  0  0  0  0  0  0  0  0  0  0
   11.6989   39.5091   30.3489 H   0  0  0  0  0  0  0  0  0  0  0  0
   10.1130   38.2588   32.6663 H   0  0  0  0  0  0  0  0  0  0  0  0
   13.6800   37.4628   31.2265 H   0  0  0  0  0  0  0  0  0  0  0  0
    8.8953   38.6908   30.8890 H   0  0  0  0  0  0  0  0  0  0  0  0
   11.2830   36.3060   32.4929 H   0  0  0  0  0  0  0  0  0  0  0  0
   11.8859   36.9589   29.7593 H   0  0  0  0  0  0  0  0  0  0  0  0
   12.3360   38.3600   34.7441 H   0  0  0  0  0  0  0  0  0  0  0  0
   16.7572   34.1793   32.4621 H   0  0  0  0  0  0  0  0  0  0  0  0
   15.3528   35.7356   37.5140 H   0  0  0  0  0  0  0  0  0  0  0  0
   16.6362   34.5318   37.1416 H   0  0  0  0  0  0  0  0  0  0  0  0
  1  2  2  0
  1  3  1  0
  3  4  1  0
  4  5  1  0
  6  1  1  0
  7  6  1  0
  6  8  1  0
  8  9  1  0
  9 10  1  0
  9 11  2  0
 10 12  1  0
 12 13  1  0
 13 14  2  0
 15 13  1  0
 14 16  1  0
 17 15  2  0
 16 18  2  0
 18 17  1  0
  4 19  2  0
  4 20  1  0
 21 20  1  0
 21 22  1  0
 22 23  1  0
 22 24  1  0
 23 25  1  0
 24 26  1  0
 24 27  1  0
 27 25  1  0
 25 28  1  0
 27 29  1  0
 30 28  1  0
 31 28  1  0
 32 30  2  0
 30 33  1  0
 34 31  2  0
 35 32  1  0
 33 36  2  0
 33 34  1  0
 37 35  2  0
 37 36  1  0
 36 38  1  0
  6 39  1  6
  7 40  1  0
  7 41  1  0
  8 42  1  0
  8 43  1  0
 12 44  1  0
 12 45  1  0
 14 46  1  0
 15 47  1  0
 16 48  1  0
 17 49  1  0
 18 50  1  0
 21 51  1  0
 21 52  1  0
 22 53  1  0
 24 54  1  0
 25 55  1  0
 26 56  1  0
 27 57  1  0
 29 58  1  0
 31 59  1  0
 35 60  1  0
 38 61  1  0
 38 62  1  0
M  CHG  1   5  -1
M  END
>  <EmbedRMS>  (194) 
0.08883977971667484

$$$$

     RDKit          3D

 62 65  0  0  0  0  0  0  0  0999 V2000
   10.2862   43.7717   33.8042 C   0  0  0  0  0  0  0  0  0  0  0  0
   11.4114   43.5870   34.3545 O   0  0  0  0  0  0  0  0  0  0  0  0
    9.3671   42.7309   33.7001 O   0  0  0  0  0  0  0  0  0  0  0  0
    9.8851   41.2344   34.2851 P   0  0  0  0  0  5  0  0  0  0  0  0
   10.3647   41.4709   35.8756 O   0  0  0  0  0  1  0  0  0  0  0  0
    9.9566   45.1116   33.2469 C   0  0  2  0  0  0  0  0  0  0  0  0
   11.0672   46.0363   33.4855 N   0  0  0  0  0  0  0  0  0  0  0  0
    8.6225   45.6577   33.8050 C   0  0  0  0  0  0  0  0  0  0  0  0
    8.6160   45.7704   35.3013 C   0  0  0  0  0  0  0  0  0  0  0  0
    8.4008   44.6242   36.0751 O   0  0  0  0  0  0  0  0  0  0  0  0
    8.8336   46.8862   35.8476 O   0  0  0  0  0  0  0  0  0  0  0  0
    8.3857   44.6314   37.5003 C   0  0  0  0  0  0  0  0  0  0  0  0
    7.1299   45.2854   38.0075 C   0  0  0  0  0  0  0  0  0  0  0  0
    7.1823   46.5282   38.6607 C   0  0  0  0  0  0  0  0  0  0  0  0
    5.8864   44.6653   37.8048 C   0  0  0  0  0  0  0  0  0  0  0  0
    6.0061   47.1360   39.1115 C   0  0  0  0  0  0  0  0  0  0  0  0
    4.7127   45.2763   38.2572 C   0  0  0  0  0  0  0  0  0  0  0  0
    4.7725   46.5103   38.9106 C   0  0  0  0  0  0  0  0  0  0  0  0
    8.8078   40.1914   34.2088 O   0  0  0  0  0  0  0  0  0  0  0  0
   11.2378   40.7904   33.3703 O   0  0  0  0  0  0  0  0  0  0  0  0
   10.9186   40.6905   31.9967 C   0  0  0  0  0  0  0  0  0  0  0  0
   11.5174   39.3825   31.4414 C   0  0  0  0  0  0  0  0  0  0  0  0
   12.7494   39.0893   32.0757 O   0  0  0  0  0  0  0  0  0  0  0  0
   10.6036   38.1899   31.6660 C   0  0  0  0  0  0  0  0  0  0  0  0
   12.9401   37.6834   32.0276 C   0  0  0  0  0  0  0  0  0  0  0  0
    9.6377   38.0785   30.6474 O   0  0  0  0  0  0  0  0  0  0  0  0
   11.5804   37.0204   31.6937 C   0  0  0  0  0  0  0  0  0  0  0  0
   13.4902   37.2177   33.3237 N   0  0  0  0  0  0  0  0  0  0  0  0
   11.6118   36.3193   30.4680 O   0  0  0  0  0  0  0  0  0  0  0  0
   14.4758   36.3271   33.5731 C   0  0  0  0  0  0  0  0  0  0  0  0
   13.1176   37.6317   34.5688 C   0  0  0  0  0  0  0  0  0  0  0  0
   15.2064   35.6142   32.6742 N   0  0  0  0  0  0  0  0  0  0  0  0
   14.6729   36.2274   34.9184 C   0  0  0  0  0  0  0  0  0  0  0  0
   13.8221   37.0457   35.5783 N   0  0  0  0  0  0  0  0  0  0  0  0
   16.1637   34.7597   33.1549 C   0  0  0  0  0  0  0  0  0  0  0  0
   15.6514   35.3493   35.4133 C   0  0  0  0  0  0  0  0  0  0  0  0
   16.3791   34.6312   34.5044 N   0  0  0  0  0  0  0  0  0  0  0  0
   15.9001   35.1935   36.8091 N   0  0  0  0  0  0  0  0  0  0  0  0
    9.8400   44.9887   32.1478 H   0  0  0  0  0  0  0  0  0  0  0  0
   10.8570   46.9421   33.0063 H   0  0  0  0  0  0  0  0  0  0  0  0
   11.1538   46.2384   34.5083 H   0  0  0  0  0  0  0  0  0  0  0  0
    8.4148   46.6534   33.3559 H   0  0  0  0  0  0  0  0  0  0  0  0
    7.7920   44.9863   33.4967 H   0  0  0  0  0  0  0  0  0  0  0  0
    8.4152   43.5812   37.8599 H   0  0  0  0  0  0  0  0  0  0  0  0
    9.2977   45.1373   37.8868 H   0  0  0  0  0  0  0  0  0  0  0  0
    8.1302   47.0272   38.8190 H   0  0  0  0  0  0  0  0  0  0  0  0
    5.8276   43.7112   37.2955 H   0  0  0  0  0  0  0  0  0  0  0  0
    6.0509   48.0930   39.6150 H   0  0  0  0  0  0  0  0  0  0  0  0
    3.7567   44.7939   38.0996 H   0  0  0  0  0  0  0  0  0  0  0  0
    3.8632   46.9824   39.2596 H   0  0  0  0  0  0  0  0  0  0  0  0
   11.3995   41.5455   31.4752 H   0  0  0  0  0  0  0  0  0  0  0  0
    9.8308   40.7396   31.7566 H   0  0  0  0  0  0  0  0  0  0  0  0
   11.6988   39.5094   30.3492 H   0  0  0  0  0  0  0  0  0  0  0  0
   10.1129   38.2588   32.6664 H   0  0  0  0  0  0  0  0  0  0  0  0
   13.6800   37.4628   31.2265 H   0  0  0  0  0  0  0  0  0  0  0  0
    8.8953   38.6909   30.8891 H   0  0  0  0  0  0  0  0  0  0  0  0
   11.2831   36.3060   32.4929 H   0  0  0  0  0  0  0  0  0  0  0  0
   11.8859   36.9590   29.7593 H   0  0  0  0  0  0  0  0  0  0  0  0
   12.3360   38.3600   34.7442 H   0  0  0  0  0  0  0  0  0  0  0  0
   16.7572   34.1793   32.4621 H   0  0  0  0  0  0  0  0  0  0  0  0
   15.3528   35.7357   37.5140 H   0  0  0  0  0  0  0  0  0  0  0  0
   16.6362   34.5318   37.1416 H   0  0  0  0  0  0  0  0  0  0  0  0
  1  2  2  0
  1  3  1  0
  3  4  1  0
  4  5  1  0
  6  1  1  0
  7  6  1  0
  6  8  1  0
  8  9  1  0
  9 10  1  0
  9 11  2  0
 10 12  1  0
 12 13  1  0
 13 14  2  0
 15 13  1  0
 14 16  1  0
 17 15  2  0
 16 18  2  0
 18 17  1  0
  4 19  2  0
  4 20  1  0
 21 20  1  0
 21 22  1  0
 22 23  1  0
 22 24  1  0
 23 25  1  0
 24 26  1  0
 24 27  1  0
 27 25  1  0
 25 28  1  0
 27 29  1  0
 30 28  1  0
 31 28  1  0
 32 30  2  0
 30 33  1  0
 34 31  2  0
 35 32  1  0
 33 36  2  0
 33 34  1  0
 37 35  2  0
 37 36  1  0
 36 38  1  0
  6 39  1  6
  7 40  1  0
  7 41  1  0
  8 42  1  0
  8 43  1  0
 12 44  1  0
 12 45  1  0
 14 46  1  0
 15 47  1  0
 16 48  1  0
 17 49  1  0
 18 50  1  0
 21 51  1  0
 21 52  1  0
 22 53  1  0
 24 54  1  0
 25 55  1  0
 26 56  1  0
 27 57  1  0
 29 58  1  0
 31 59  1  0
 35 60  1  0
 38 61  1  0
 38 62  1  0
M  CHG  1   5  -1
M  END
>  <EmbedRMS>  (195) 
0.08820206840363444

$$$$

     RDKit          3D

 62 65  0  0  0  0  0  0  0  0999 V2000
   10.2843   43.7742   33.8070 C   0  0  0  0  0  0  0  0  0  0  0  0
   11.4068   43.5902   34.3637 O   0  0  0  0  0  0  0  0  0  0  0  0
    9.3676   42.7312   33.6993 O   0  0  0  0  0  0  0  0  0  0  0  0
    9.8858   41.2343   34.2835 P   0  0  0  0  0  5  0  0  0  0  0  0
   10.3666   41.4695   35.8740 O   0  0  0  0  0  1  0  0  0  0  0  0
    9.9499   45.1157   33.2538 C   0  0  2  0  0  0  0  0  0  0  0  0
   11.0750   46.0288   33.4735 N   0  0  0  0  0  0  0  0  0  0  0  0
    8.6755   45.6519   33.9366 C   0  0  0  0  0  0  0  0  0  0  0  0
    8.2022   46.9164   33.2905 C   0  0  0  0  0  0  0  0  0  0  0  0
    7.7008   46.8727   31.9852 O   0  0  0  0  0  0  0  0  0  0  0  0
    8.2933   48.0112   33.9103 O   0  0  0  0  0  0  0  0  0  0  0  0
    7.4490   48.0411   31.2088 C   0  0  0  0  0  0  0  0  0  0  0  0
    8.7476   48.7028   30.8348 C   0  0  0  0  0  0  0  0  0  0  0  0
    9.6739   48.0205   30.0293 C   0  0  0  0  0  0  0  0  0  0  0  0
    9.0631   49.9855   31.3132 C   0  0  0  0  0  0  0  0  0  0  0  0
   10.8967   48.6153   29.7037 C   0  0  0  0  0  0  0  0  0  0  0  0
   10.2867   50.5774   30.9841 C   0  0  0  0  0  0  0  0  0  0  0  0
   11.2027   49.8930   30.1802 C   0  0  0  0  0  0  0  0  0  0  0  0
    8.8081   40.1915   34.2082 O   0  0  0  0  0  0  0  0  0  0  0  0
   11.2372   40.7910   33.3668 O   0  0  0  0  0  0  0  0  0  0  0  0
   10.9138   40.6861   31.9943 C   0  0  0  0  0  0  0  0  0  0  0  0
   11.5171   39.3797   31.4408 C   0  0  0  0  0  0  0  0  0  0  0  0
   12.7488   39.0886   32.0762 O   0  0  0  0  0  0  0  0  0  0  0  0
   10.6052   38.1877   31.6659 C   0  0  0  0  0  0  0  0  0  0  0  0
   12.9412   37.6828   32.0278 C   0  0  0  0  0  0  0  0  0  0  0  0
    9.6358   38.0930   30.6503 O   0  0  0  0  0  0  0  0  0  0  0  0
   11.5827   37.0179   31.6936 C   0  0  0  0  0  0  0  0  0  0  0  0
   13.4909   37.2176   33.3239 N   0  0  0  0  0  0  0  0  0  0  0  0
   11.6140   36.3180   30.4675 O   0  0  0  0  0  0  0  0  0  0  0  0
   14.4763   36.3270   33.5733 C   0  0  0  0  0  0  0  0  0  0  0  0
   13.1179   37.6316   34.5689 C   0  0  0  0  0  0  0  0  0  0  0  0
   15.2067   35.6140   32.6743 N   0  0  0  0  0  0  0  0  0  0  0  0
   14.6731   36.2272   34.9186 C   0  0  0  0  0  0  0  0  0  0  0  0
   13.8223   37.0456   35.5785 N   0  0  0  0  0  0  0  0  0  0  0  0
   16.1639   34.7595   33.1550 C   0  0  0  0  0  0  0  0  0  0  0  0
   15.6515   35.3491   35.4134 C   0  0  0  0  0  0  0  0  0  0  0  0
   16.3793   34.6310   34.5045 N   0  0  0  0  0  0  0  0  0  0  0  0
   15.9002   35.1933   36.8093 N   0  0  0  0  0  0  0  0  0  0  0  0
    9.7681   45.0031   32.1606 H   0  0  0  0  0  0  0  0  0  0  0  0
   11.8965   45.6773   32.9282 H   0  0  0  0  0  0  0  0  0  0  0  0
   10.8466   46.9550   33.0453 H   0  0  0  0  0  0  0  0  0  0  0  0
    8.8701   45.8265   35.0183 H   0  0  0  0  0  0  0  0  0  0  0  0
    7.8570   44.9042   33.8547 H   0  0  0  0  0  0  0  0  0  0  0  0
    6.7811   48.7315   31.7693 H   0  0  0  0  0  0  0  0  0  0  0  0
    6.9169   47.7439   30.2807 H   0  0  0  0  0  0  0  0  0  0  0  0
    9.4508   47.0267   29.6608 H   0  0  0  0  0  0  0  0  0  0  0  0
    8.3670   50.5246   31.9436 H   0  0  0  0  0  0  0  0  0  0  0  0
   11.6080   48.0846   29.0842 H   0  0  0  0  0  0  0  0  0  0  0  0
   10.5263   51.5656   31.3550 H   0  0  0  0  0  0  0  0  0  0  0  0
   12.1499   50.3519   29.9281 H   0  0  0  0  0  0  0  0  0  0  0  0
   11.3858   41.5433   31.4683 H   0  0  0  0  0  0  0  0  0  0  0  0
    9.8237   40.7211   31.7578 H   0  0  0  0  0  0  0  0  0  0  0  0
   11.6995   39.5063   30.3486 H   0  0  0  0  0  0  0  0  0  0  0  0
   10.1121   38.2723   32.6632 H   0  0  0  0  0  0  0  0  0  0  0  0
   13.6816   37.4631   31.2269 H   0  0  0  0  0  0  0  0  0  0  0  0
    9.0037   37.3828   30.9349 H   0  0  0  0  0  0  0  0  0  0  0  0
   11.2846   36.3041   32.4928 H   0  0  0  0  0  0  0  0  0  0  0  0
   11.8849   36.9590   29.7588 H   0  0  0  0  0  0  0  0  0  0  0  0
   12.3363   38.3599   34.7441 H   0  0  0  0  0  0  0  0  0  0  0  0
   16.7574   34.1790   32.4623 H   0  0  0  0  0  0  0  0  0  0  0  0
   16.6363   34.5316   37.1418 H   0  0  0  0  0  0  0  0  0  0  0  0
   15.3529   35.7355   37.5141 H   0  0  0  0  0  0  0  0  0  0  0  0
  1  2  2  0
  1  3  1  0
  3  4  1  0
  4  5  1  0
  6  1  1  0
  7  6  1  0
  6  8  1  0
  8  9  1  0
  9 10  1  0
  9 11  2  0
 10 12  1  0
 12 13  1  0
 13 14  2  0
 15 13  1  0
 14 16  1  0
 17 15  2  0
 16 18  2  0
 18 17  1  0
  4 19  2  0
  4 20  1  0
 21 20  1  0
 21 22  1  0
 22 23  1  0
 22 24  1  0
 23 25  1  0
 24 26  1  0
 24 27  1  0
 27 25  1  0
 25 28  1  0
 27 29  1  0
 30 28  1  0
 31 28  1  0
 32 30  2  0
 30 33  1  0
 34 31  2  0
 35 32  1  0
 33 36  2  0
 33 34  1  0
 37 35  2  0
 37 36  1  0
 36 38  1  0
  6 39  1  6
  7 40  1  0
  7 41  1  0
  8 42  1  0
  8 43  1  0
 12 44  1  0
 12 45  1  0
 14 46  1  0
 15 47  1  0
 16 48  1  0
 17 49  1  0
 18 50  1  0
 21 51  1  0
 21 52  1  0
 22 53  1  0
 24 54  1  0
 25 55  1  0
 26 56  1  0
 27 57  1  0
 29 58  1  0
 31 59  1  0
 35 60  1  0
 38 61  1  0
 38 62  1  0
M  CHG  1   5  -1
M  END
>  <EmbedRMS>  (196) 
0.08791272540199929

$$$$

     RDKit          3D

 62 65  0  0  0  0  0  0  0  0999 V2000
   10.2857   43.7716   33.8041 C   0  0  0  0  0  0  0  0  0  0  0  0
   11.4105   43.5871   34.3558 O   0  0  0  0  0  0  0  0  0  0  0  0
    9.3670   42.7308   33.6997 O   0  0  0  0  0  0  0  0  0  0  0  0
    9.8857   41.2342   34.2841 P   0  0  0  0  0  5  0  0  0  0  0  0
   10.3657   41.4700   35.8744 O   0  0  0  0  0  1  0  0  0  0  0  0
    9.9553   45.1129   33.2485 C   0  0  2  0  0  0  0  0  0  0  0  0
   11.0691   46.0343   33.4837 N   0  0  0  0  0  0  0  0  0  0  0  0
    8.6220   45.6645   33.8085 C   0  0  0  0  0  0  0  0  0  0  0  0
    8.5543   45.6244   35.3073 C   0  0  0  0  0  0  0  0  0  0  0  0
    9.1702   46.6321   36.0570 O   0  0  0  0  0  0  0  0  0  0  0  0
    7.9791   44.6584   35.8795 O   0  0  0  0  0  0  0  0  0  0  0  0
    9.3746   46.5385   37.4649 C   0  0  0  0  0  0  0  0  0  0  0  0
   10.4022   45.4815   37.7684 C   0  0  0  0  0  0  0  0  0  0  0  0
   11.7455   45.6887   37.4153 C   0  0  0  0  0  0  0  0  0  0  0  0
   10.0230   44.2591   38.3481 C   0  0  0  0  0  0  0  0  0  0  0  0
   12.6962   44.6892   37.6439 C   0  0  0  0  0  0  0  0  0  0  0  0
   10.9777   43.2636   38.5785 C   0  0  0  0  0  0  0  0  0  0  0  0
   12.3127   43.4776   38.2251 C   0  0  0  0  0  0  0  0  0  0  0  0
    8.8083   40.1912   34.2083 O   0  0  0  0  0  0  0  0  0  0  0  0
   11.2384   40.7901   33.3690 O   0  0  0  0  0  0  0  0  0  0  0  0
   10.9194   40.6895   31.9952 C   0  0  0  0  0  0  0  0  0  0  0  0
   11.5171   39.3802   31.4399 C   0  0  0  0  0  0  0  0  0  0  0  0
   12.7479   39.0862   32.0734 O   0  0  0  0  0  0  0  0  0  0  0  0
   10.6031   38.1892   31.6667 C   0  0  0  0  0  0  0  0  0  0  0  0
   12.9335   37.6797   32.0280 C   0  0  0  0  0  0  0  0  0  0  0  0
    9.6397   38.0778   30.6457 O   0  0  0  0  0  0  0  0  0  0  0  0
   11.5739   37.0154   31.7058 C   0  0  0  0  0  0  0  0  0  0  0  0
   13.4903   37.2178   33.3231 N   0  0  0  0  0  0  0  0  0  0  0  0
   11.6211   36.3377   30.4695 O   0  0  0  0  0  0  0  0  0  0  0  0
   14.4761   36.3273   33.5725 C   0  0  0  0  0  0  0  0  0  0  0  0
   13.1179   37.6318   34.5684 C   0  0  0  0  0  0  0  0  0  0  0  0
   15.2063   35.6139   32.6737 N   0  0  0  0  0  0  0  0  0  0  0  0
   14.6733   36.2278   34.9180 C   0  0  0  0  0  0  0  0  0  0  0  0
   13.8226   37.0460   35.5780 N   0  0  0  0  0  0  0  0  0  0  0  0
   16.1636   34.7595   33.1546 C   0  0  0  0  0  0  0  0  0  0  0  0
   15.6515   35.3494   35.4129 C   0  0  0  0  0  0  0  0  0  0  0  0
   16.3791   34.6311   34.5041 N   0  0  0  0  0  0  0  0  0  0  0  0
   15.9001   35.1936   36.8088 N   0  0  0  0  0  0  0  0  0  0  0  0
    9.8375   44.9923   32.1493 H   0  0  0  0  0  0  0  0  0  0  0  0
   10.8619   46.9412   33.0056 H   0  0  0  0  0  0  0  0  0  0  0  0
   11.1620   46.2341   34.5051 H   0  0  0  0  0  0  0  0  0  0  0  0
    7.7800   45.0692   33.3916 H   0  0  0  0  0  0  0  0  0  0  0  0
    8.4761   46.7115   33.4665 H   0  0  0  0  0  0  0  0  0  0  0  0
    9.7407   47.5184   37.8375 H   0  0  0  0  0  0  0  0  0  0  0  0
    8.4092   46.3295   37.9760 H   0  0  0  0  0  0  0  0  0  0  0  0
   12.0529   46.6200   36.9560 H   0  0  0  0  0  0  0  0  0  0  0  0
    8.9900   44.0734   38.6144 H   0  0  0  0  0  0  0  0  0  0  0  0
   13.7296   44.8526   37.3667 H   0  0  0  0  0  0  0  0  0  0  0  0
   10.6809   42.3229   39.0239 H   0  0  0  0  0  0  0  0  0  0  0  0
   13.0491   42.7038   38.3991 H   0  0  0  0  0  0  0  0  0  0  0  0
   11.4012   41.5438   31.4733 H   0  0  0  0  0  0  0  0  0  0  0  0
    9.8316   40.7398   31.7551 H   0  0  0  0  0  0  0  0  0  0  0  0
   11.6982   39.5045   30.3472 H   0  0  0  0  0  0  0  0  0  0  0  0
   10.1090   38.2632   32.6650 H   0  0  0  0  0  0  0  0  0  0  0  0
   13.6656   37.4541   31.2208 H   0  0  0  0  0  0  0  0  0  0  0  0
    8.8966   38.6901   30.8852 H   0  0  0  0  0  0  0  0  0  0  0  0
   11.2846   36.3060   32.5176 H   0  0  0  0  0  0  0  0  0  0  0  0
   10.8523   35.7095   30.4590 H   0  0  0  0  0  0  0  0  0  0  0  0
   12.3354   38.3590   34.7440 H   0  0  0  0  0  0  0  0  0  0  0  0
   16.7570   34.1788   32.4619 H   0  0  0  0  0  0  0  0  0  0  0  0
   15.3529   35.7359   37.5136 H   0  0  0  0  0  0  0  0  0  0  0  0
   16.6360   34.5317   37.1414 H   0  0  0  0  0  0  0  0  0  0  0  0
  1  2  2  0
  1  3  1  0
  3  4  1  0
  4  5  1  0
  6  1  1  0
  7  6  1  0
  6  8  1  0
  8  9  1  0
  9 10  1  0
  9 11  2  0
 10 12  1  0
 12 13  1  0
 13 14  2  0
 15 13  1  0
 14 16  1  0
 17 15  2  0
 16 18  2  0
 18 17  1  0
  4 19  2  0
  4 20  1  0
 21 20  1  0
 21 22  1  0
 22 23  1  0
 22 24  1  0
 23 25  1  0
 24 26  1  0
 24 27  1  0
 27 25  1  0
 25 28  1  0
 27 29  1  0
 30 28  1  0
 31 28  1  0
 32 30  2  0
 30 33  1  0
 34 31  2  0
 35 32  1  0
 33 36  2  0
 33 34  1  0
 37 35  2  0
 37 36  1  0
 36 38  1  0
  6 39  1  6
  7 40  1  0
  7 41  1  0
  8 42  1  0
  8 43  1  0
 12 44  1  0
 12 45  1  0
 14 46  1  0
 15 47  1  0
 16 48  1  0
 17 49  1  0
 18 50  1  0
 21 51  1  0
 21 52  1  0
 22 53  1  0
 24 54  1  0
 25 55  1  0
 26 56  1  0
 27 57  1  0
 29 58  1  0
 31 59  1  0
 35 60  1  0
 38 61  1  0
 38 62  1  0
M  CHG  1   5  -1
M  END
>  <EmbedRMS>  (197) 
0.0892589676431247

$$$$

     RDKit          3D

 62 65  0  0  0  0  0  0  0  0999 V2000
   10.2845   43.7742   33.8068 C   0  0  0  0  0  0  0  0  0  0  0  0
   11.4070   43.5903   34.3635 O   0  0  0  0  0  0  0  0  0  0  0  0
    9.3683   42.7308   33.6984 O   0  0  0  0  0  0  0  0  0  0  0  0
    9.8864   41.2339   34.2831 P   0  0  0  0  0  5  0  0  0  0  0  0
   10.3659   41.4695   35.8740 O   0  0  0  0  0  1  0  0  0  0  0  0
    9.9492   45.1163   33.2548 C   0  0  2  0  0  0  0  0  0  0  0  0
   11.0753   46.0279   33.4734 N   0  0  0  0  0  0  0  0  0  0  0  0
    8.6786   45.6535   33.9426 C   0  0  0  0  0  0  0  0  0  0  0  0
    8.1762   46.8987   33.2793 C   0  0  0  0  0  0  0  0  0  0  0  0
    7.5611   46.8083   32.0257 O   0  0  0  0  0  0  0  0  0  0  0  0
    8.3330   48.0164   33.8424 O   0  0  0  0  0  0  0  0  0  0  0  0
    7.0337   47.9354   31.3297 C   0  0  0  0  0  0  0  0  0  0  0  0
    5.7772   48.4238   31.9973 C   0  0  0  0  0  0  0  0  0  0  0  0
    4.6201   47.6283   31.9798 C   0  0  0  0  0  0  0  0  0  0  0  0
    5.7541   49.6597   32.6652 C   0  0  0  0  0  0  0  0  0  0  0  0
    3.4539   48.0674   32.6144 C   0  0  0  0  0  0  0  0  0  0  0  0
    4.5858   50.0951   33.2987 C   0  0  0  0  0  0  0  0  0  0  0  0
    3.4365   49.3002   33.2728 C   0  0  0  0  0  0  0  0  0  0  0  0
    8.8088   40.1911   34.2072 O   0  0  0  0  0  0  0  0  0  0  0  0
   11.2391   40.7899   33.3683 O   0  0  0  0  0  0  0  0  0  0  0  0
   10.9199   40.6894   31.9945 C   0  0  0  0  0  0  0  0  0  0  0  0
   11.5173   39.3800   31.4395 C   0  0  0  0  0  0  0  0  0  0  0  0
   12.7480   39.0860   32.0731 O   0  0  0  0  0  0  0  0  0  0  0  0
   10.6032   38.1891   31.6666 C   0  0  0  0  0  0  0  0  0  0  0  0
   12.9336   37.6795   32.0279 C   0  0  0  0  0  0  0  0  0  0  0  0
    9.6397   38.0777   30.6456 O   0  0  0  0  0  0  0  0  0  0  0  0
   11.5739   37.0153   31.7057 C   0  0  0  0  0  0  0  0  0  0  0  0
   13.4903   37.2177   33.3231 N   0  0  0  0  0  0  0  0  0  0  0  0
   11.6211   36.3375   30.4695 O   0  0  0  0  0  0  0  0  0  0  0  0
   14.4761   36.3273   33.5725 C   0  0  0  0  0  0  0  0  0  0  0  0
   13.1178   37.6316   34.5684 C   0  0  0  0  0  0  0  0  0  0  0  0
   15.2063   35.6139   32.6737 N   0  0  0  0  0  0  0  0  0  0  0  0
   14.6734   36.2277   34.9180 C   0  0  0  0  0  0  0  0  0  0  0  0
   13.8225   37.0459   35.5779 N   0  0  0  0  0  0  0  0  0  0  0  0
   16.1636   34.7594   33.1546 C   0  0  0  0  0  0  0  0  0  0  0  0
   15.6515   35.3494   35.4129 C   0  0  0  0  0  0  0  0  0  0  0  0
   16.3791   34.6311   34.5041 N   0  0  0  0  0  0  0  0  0  0  0  0
   15.9001   35.1935   36.8088 N   0  0  0  0  0  0  0  0  0  0  0  0
    9.7637   45.0046   32.1622 H   0  0  0  0  0  0  0  0  0  0  0  0
   11.8939   45.6794   32.9219 H   0  0  0  0  0  0  0  0  0  0  0  0
   10.8434   46.9568   33.0533 H   0  0  0  0  0  0  0  0  0  0  0  0
    7.8675   44.8949   33.8896 H   0  0  0  0  0  0  0  0  0  0  0  0
    8.8849   45.8523   35.0178 H   0  0  0  0  0  0  0  0  0  0  0  0
    6.7928   47.6293   30.2898 H   0  0  0  0  0  0  0  0  0  0  0  0
    7.8030   48.7363   31.2670 H   0  0  0  0  0  0  0  0  0  0  0  0
    4.6232   46.6691   31.4767 H   0  0  0  0  0  0  0  0  0  0  0  0
    6.6382   50.2842   32.6979 H   0  0  0  0  0  0  0  0  0  0  0  0
    2.5642   47.4513   32.5973 H   0  0  0  0  0  0  0  0  0  0  0  0
    4.5720   51.0482   33.8114 H   0  0  0  0  0  0  0  0  0  0  0  0
    2.5335   49.6384   33.7642 H   0  0  0  0  0  0  0  0  0  0  0  0
    9.8321   40.7398   31.7543 H   0  0  0  0  0  0  0  0  0  0  0  0
   11.4018   41.5435   31.4726 H   0  0  0  0  0  0  0  0  0  0  0  0
   11.6984   39.5040   30.3468 H   0  0  0  0  0  0  0  0  0  0  0  0
   10.1091   38.2633   32.6649 H   0  0  0  0  0  0  0  0  0  0  0  0
   13.6656   37.4538   31.2207 H   0  0  0  0  0  0  0  0  0  0  0  0
    8.8966   38.6901   30.8851 H   0  0  0  0  0  0  0  0  0  0  0  0
   11.2845   36.3060   32.5175 H   0  0  0  0  0  0  0  0  0  0  0  0
   10.8523   35.7094   30.4590 H   0  0  0  0  0  0  0  0  0  0  0  0
   12.3353   38.3588   34.7439 H   0  0  0  0  0  0  0  0  0  0  0  0
   16.7570   34.1788   32.4619 H   0  0  0  0  0  0  0  0  0  0  0  0
   16.6360   34.5317   37.1414 H   0  0  0  0  0  0  0  0  0  0  0  0
   15.3529   35.7359   37.5136 H   0  0  0  0  0  0  0  0  0  0  0  0
  1  2  2  0
  1  3  1  0
  3  4  1  0
  4  5  1  0
  6  1  1  0
  7  6  1  0
  6  8  1  0
  8  9  1  0
  9 10  1  0
  9 11  2  0
 10 12  1  0
 12 13  1  0
 13 14  2  0
 15 13  1  0
 14 16  1  0
 17 15  2  0
 16 18  2  0
 18 17  1  0
  4 19  2  0
  4 20  1  0
 21 20  1  0
 21 22  1  0
 22 23  1  0
 22 24  1  0
 23 25  1  0
 24 26  1  0
 24 27  1  0
 27 25  1  0
 25 28  1  0
 27 29  1  0
 30 28  1  0
 31 28  1  0
 32 30  2  0
 30 33  1  0
 34 31  2  0
 35 32  1  0
 33 36  2  0
 33 34  1  0
 37 35  2  0
 37 36  1  0
 36 38  1  0
  6 39  1  6
  7 40  1  0
  7 41  1  0
  8 42  1  0
  8 43  1  0
 12 44  1  0
 12 45  1  0
 14 46  1  0
 15 47  1  0
 16 48  1  0
 17 49  1  0
 18 50  1  0
 21 51  1  0
 21 52  1  0
 22 53  1  0
 24 54  1  0
 25 55  1  0
 26 56  1  0
 27 57  1  0
 29 58  1  0
 31 59  1  0
 35 60  1  0
 38 61  1  0
 38 62  1  0
M  CHG  1   5  -1
M  END
>  <EmbedRMS>  (198) 
0.08952654213249096

$$$$

     RDKit          3D

 62 65  0  0  0  0  0  0  0  0999 V2000
   10.2810   43.7761   33.8097 C   0  0  0  0  0  0  0  0  0  0  0  0
   11.4070   43.5919   34.3591 O   0  0  0  0  0  0  0  0  0  0  0  0
    9.3693   42.7296   33.6985 O   0  0  0  0  0  0  0  0  0  0  0  0
    9.8863   41.2340   34.2846 P   0  0  0  0  0  5  0  0  0  0  0  0
   10.3661   41.4704   35.8750 O   0  0  0  0  0  1  0  0  0  0  0  0
    9.9505   45.1172   33.2484 C   0  0  2  0  0  0  0  0  0  0  0  0
   11.0752   46.0255   33.4797 N   0  0  0  0  0  0  0  0  0  0  0  0
    8.6567   45.6933   33.8663 C   0  0  0  0  0  0  0  0  0  0  0  0
    7.4387   44.9416   33.4234 C   0  0  0  0  0  0  0  0  0  0  0  0
    6.8276   44.0418   34.3041 O   0  0  0  0  0  0  0  0  0  0  0  0
    6.9956   45.1016   32.2533 O   0  0  0  0  0  0  0  0  0  0  0  0
    5.6931   43.2523   33.9551 C   0  0  0  0  0  0  0  0  0  0  0  0
    4.4616   44.1115   33.8665 C   0  0  0  0  0  0  0  0  0  0  0  0
    3.9389   44.7082   35.0252 C   0  0  0  0  0  0  0  0  0  0  0  0
    3.8389   44.3463   32.6291 C   0  0  0  0  0  0  0  0  0  0  0  0
    2.8045   45.5222   34.9477 C   0  0  0  0  0  0  0  0  0  0  0  0
    2.7047   45.1611   32.5559 C   0  0  0  0  0  0  0  0  0  0  0  0
    2.1875   45.7480   33.7141 C   0  0  0  0  0  0  0  0  0  0  0  0
    8.8081   40.1918   34.2087 O   0  0  0  0  0  0  0  0  0  0  0  0
   11.2376   40.7898   33.3689 O   0  0  0  0  0  0  0  0  0  0  0  0
   10.9157   40.6896   31.9960 C   0  0  0  0  0  0  0  0  0  0  0  0
   11.5270   39.3897   31.4372 C   0  0  0  0  0  0  0  0  0  0  0  0
   12.7508   39.0915   32.0836 O   0  0  0  0  0  0  0  0  0  0  0  0
   10.6122   38.1916   31.6452 C   0  0  0  0  0  0  0  0  0  0  0  0
   12.9429   37.6852   32.0294 C   0  0  0  0  0  0  0  0  0  0  0  0
    9.6069   38.0858   30.6603 O   0  0  0  0  0  0  0  0  0  0  0  0
   11.5844   37.0185   31.6879 C   0  0  0  0  0  0  0  0  0  0  0  0
   13.4899   37.2163   33.3249 N   0  0  0  0  0  0  0  0  0  0  0  0
   11.6201   36.3062   30.4693 O   0  0  0  0  0  0  0  0  0  0  0  0
   14.4759   36.3263   33.5738 C   0  0  0  0  0  0  0  0  0  0  0  0
   13.1175   37.6307   34.5698 C   0  0  0  0  0  0  0  0  0  0  0  0
   15.2065   35.6139   32.6746 N   0  0  0  0  0  0  0  0  0  0  0  0
   14.6731   36.2267   34.9190 C   0  0  0  0  0  0  0  0  0  0  0  0
   13.8224   37.0450   35.5792 N   0  0  0  0  0  0  0  0  0  0  0  0
   16.1640   34.7596   33.1551 C   0  0  0  0  0  0  0  0  0  0  0  0
   15.6517   35.3489   35.4136 C   0  0  0  0  0  0  0  0  0  0  0  0
   16.3795   34.6310   34.5046 N   0  0  0  0  0  0  0  0  0  0  0  0
   15.9006   35.1931   36.8094 N   0  0  0  0  0  0  0  0  0  0  0  0
    9.8143   45.0030   32.1498 H   0  0  0  0  0  0  0  0  0  0  0  0
   11.1166   46.2828   34.4939 H   0  0  0  0  0  0  0  0  0  0  0  0
   10.9079   46.9079   32.9432 H   0  0  0  0  0  0  0  0  0  0  0  0
    8.7221   45.6744   34.9764 H   0  0  0  0  0  0  0  0  0  0  0  0
    8.5387   46.7548   33.5579 H   0  0  0  0  0  0  0  0  0  0  0  0
    5.5401   42.4842   34.7424 H   0  0  0  0  0  0  0  0  0  0  0  0
    5.8869   42.7120   33.0023 H   0  0  0  0  0  0  0  0  0  0  0  0
    4.4113   44.5437   35.9859 H   0  0  0  0  0  0  0  0  0  0  0  0
    4.2310   43.9022   31.7226 H   0  0  0  0  0  0  0  0  0  0  0  0
    2.4047   45.9792   35.8437 H   0  0  0  0  0  0  0  0  0  0  0  0
    2.2276   45.3390   31.6007 H   0  0  0  0  0  0  0  0  0  0  0  0
    1.3099   46.3789   33.6555 H   0  0  0  0  0  0  0  0  0  0  0  0
   11.3825   41.5525   31.4747 H   0  0  0  0  0  0  0  0  0  0  0  0
    9.8254   40.7190   31.7591 H   0  0  0  0  0  0  0  0  0  0  0  0
   11.7317   39.5338   30.3518 H   0  0  0  0  0  0  0  0  0  0  0  0
   10.1215   38.2682   32.6413 H   0  0  0  0  0  0  0  0  0  0  0  0
   13.6882   37.4706   31.2318 H   0  0  0  0  0  0  0  0  0  0  0  0
   10.0255   38.1751   29.7656 H   0  0  0  0  0  0  0  0  0  0  0  0
   11.2795   36.3123   32.4915 H   0  0  0  0  0  0  0  0  0  0  0  0
   11.9870   36.9099   29.7714 H   0  0  0  0  0  0  0  0  0  0  0  0
   12.3364   38.3595   34.7453 H   0  0  0  0  0  0  0  0  0  0  0  0
   16.7576   34.1794   32.4622 H   0  0  0  0  0  0  0  0  0  0  0  0
   16.6368   34.5316   37.1418 H   0  0  0  0  0  0  0  0  0  0  0  0
   15.3532   35.7351   37.5143 H   0  0  0  0  0  0  0  0  0  0  0  0
  1  2  2  0
  1  3  1  0
  3  4  1  0
  4  5  1  0
  6  1  1  0
  7  6  1  0
  6  8  1  0
  8  9  1  0
  9 10  1  0
  9 11  2  0
 10 12  1  0
 12 13  1  0
 13 14  2  0
 15 13  1  0
 14 16  1  0
 17 15  2  0
 16 18  2  0
 18 17  1  0
  4 19  2  0
  4 20  1  0
 21 20  1  0
 21 22  1  0
 22 23  1  0
 22 24  1  0
 23 25  1  0
 24 26  1  0
 24 27  1  0
 27 25  1  0
 25 28  1  0
 27 29  1  0
 30 28  1  0
 31 28  1  0
 32 30  2  0
 30 33  1  0
 34 31  2  0
 35 32  1  0
 33 36  2  0
 33 34  1  0
 37 35  2  0
 37 36  1  0
 36 38  1  0
  6 39  1  6
  7 40  1  0
  7 41  1  0
  8 42  1  0
  8 43  1  0
 12 44  1  0
 12 45  1  0
 14 46  1  0
 15 47  1  0
 16 48  1  0
 17 49  1  0
 18 50  1  0
 21 51  1  0
 21 52  1  0
 22 53  1  0
 24 54  1  0
 25 55  1  0
 26 56  1  0
 27 57  1  0
 29 58  1  0
 31 59  1  0
 35 60  1  0
 38 61  1  0
 38 62  1  0
M  CHG  1   5  -1
M  END
>  <EmbedRMS>  (199) 
0.08706314851578933

$$$$

     RDKit          3D

 62 65  0  0  0  0  0  0  0  0999 V2000
   10.2863   43.7709   33.8100 C   0  0  0  0  0  0  0  0  0  0  0  0
   11.4102   43.5817   34.3616 O   0  0  0  0  0  0  0  0  0  0  0  0
    9.3668   42.7309   33.7022 O   0  0  0  0  0  0  0  0  0  0  0  0
    9.8846   41.2330   34.2845 P   0  0  0  0  0  5  0  0  0  0  0  0
   10.3648   41.4677   35.8752 O   0  0  0  0  0  1  0  0  0  0  0  0
    9.9610   45.1120   33.2472 C   0  0  2  0  0  0  0  0  0  0  0  0
   11.0652   46.0483   33.4748 N   0  0  0  0  0  0  0  0  0  0  0  0
    8.6642   45.6567   33.8694 C   0  0  0  0  0  0  0  0  0  0  0  0
    8.2891   46.9680   33.2537 C   0  0  0  0  0  0  0  0  0  0  0  0
    7.7463   46.9890   31.9644 O   0  0  0  0  0  0  0  0  0  0  0  0
    8.5066   48.0410   33.8802 O   0  0  0  0  0  0  0  0  0  0  0  0
    7.5402   48.1900   31.2248 C   0  0  0  0  0  0  0  0  0  0  0  0
    8.8618   48.7768   30.8093 C   0  0  0  0  0  0  0  0  0  0  0  0
    9.2852   50.0186   31.3119 C   0  0  0  0  0  0  0  0  0  0  0  0
    9.6999   48.0650   29.9357 C   0  0  0  0  0  0  0  0  0  0  0  0
   10.5276   50.5415   30.9392 C   0  0  0  0  0  0  0  0  0  0  0  0
   10.9417   48.5909   29.5663 C   0  0  0  0  0  0  0  0  0  0  0  0
   11.3550   49.8285   30.0671 C   0  0  0  0  0  0  0  0  0  0  0  0
    8.8073   40.1902   34.2075 O   0  0  0  0  0  0  0  0  0  0  0  0
   11.2377   40.7904   33.3696 O   0  0  0  0  0  0  0  0  0  0  0  0
   10.9186   40.6905   31.9960 C   0  0  0  0  0  0  0  0  0  0  0  0
   11.5174   39.3824   31.4411 C   0  0  0  0  0  0  0  0  0  0  0  0
   12.7494   39.0893   32.0756 O   0  0  0  0  0  0  0  0  0  0  0  0
   10.6036   38.1899   31.6659 C   0  0  0  0  0  0  0  0  0  0  0  0
   12.9401   37.6834   32.0276 C   0  0  0  0  0  0  0  0  0  0  0  0
    9.6376   38.0785   30.6474 O   0  0  0  0  0  0  0  0  0  0  0  0
   11.5803   37.0204   31.6937 C   0  0  0  0  0  0  0  0  0  0  0  0
   13.4902   37.2177   33.3237 N   0  0  0  0  0  0  0  0  0  0  0  0
   11.6118   36.3193   30.4680 O   0  0  0  0  0  0  0  0  0  0  0  0
   14.4759   36.3271   33.5731 C   0  0  0  0  0  0  0  0  0  0  0  0
   13.1176   37.6317   34.5688 C   0  0  0  0  0  0  0  0  0  0  0  0
   15.2064   35.6141   32.6742 N   0  0  0  0  0  0  0  0  0  0  0  0
   14.6729   36.2274   34.9184 C   0  0  0  0  0  0  0  0  0  0  0  0
   13.8221   37.0457   35.5783 N   0  0  0  0  0  0  0  0  0  0  0  0
   16.1637   34.7597   33.1549 C   0  0  0  0  0  0  0  0  0  0  0  0
   15.6514   35.3493   35.4133 C   0  0  0  0  0  0  0  0  0  0  0  0
   16.3791   34.6312   34.5044 N   0  0  0  0  0  0  0  0  0  0  0  0
   15.9001   35.1935   36.8091 N   0  0  0  0  0  0  0  0  0  0  0  0
    9.8118   44.9946   32.1506 H   0  0  0  0  0  0  0  0  0  0  0  0
   11.9214   45.7040   32.9812 H   0  0  0  0  0  0  0  0  0  0  0  0
   11.2756   46.1180   34.4980 H   0  0  0  0  0  0  0  0  0  0  0  0
    7.8317   44.9407   33.6957 H   0  0  0  0  0  0  0  0  0  0  0  0
    8.7876   45.7760   34.9688 H   0  0  0  0  0  0  0  0  0  0  0  0
    6.9421   48.9080   31.8278 H   0  0  0  0  0  0  0  0  0  0  0  0
    6.9515   47.9504   30.3143 H   0  0  0  0  0  0  0  0  0  0  0  0
    8.6581   50.5792   31.9939 H   0  0  0  0  0  0  0  0  0  0  0  0
    9.3929   47.1019   29.5466 H   0  0  0  0  0  0  0  0  0  0  0  0
   10.8501   51.4984   31.3287 H   0  0  0  0  0  0  0  0  0  0  0  0
   11.5845   48.0380   28.8936 H   0  0  0  0  0  0  0  0  0  0  0  0
   12.3169   50.2340   29.7810 H   0  0  0  0  0  0  0  0  0  0  0  0
    9.8308   40.7397   31.7557 H   0  0  0  0  0  0  0  0  0  0  0  0
   11.3997   41.5455   31.4746 H   0  0  0  0  0  0  0  0  0  0  0  0
   11.6989   39.5091   30.3489 H   0  0  0  0  0  0  0  0  0  0  0  0
   10.1130   38.2589   32.6663 H   0  0  0  0  0  0  0  0  0  0  0  0
   13.6800   37.4628   31.2265 H   0  0  0  0  0  0  0  0  0  0  0  0
    8.8953   38.6908   30.8890 H   0  0  0  0  0  0  0  0  0  0  0  0
   11.2830   36.3060   32.4929 H   0  0  0  0  0  0  0  0  0  0  0  0
   11.8859   36.9589   29.7593 H   0  0  0  0  0  0  0  0  0  0  0  0
   12.3360   38.3600   34.7441 H   0  0  0  0  0  0  0  0  0  0  0  0
   16.7572   34.1793   32.4621 H   0  0  0  0  0  0  0  0  0  0  0  0
   16.6362   34.5318   37.1416 H   0  0  0  0  0  0  0  0  0  0  0  0
   15.3528   35.7357   37.5140 H   0  0  0  0  0  0  0  0  0  0  0  0
  1  2  2  0
  1  3  1  0
  3  4  1  0
  4  5  1  0
  6  1  1  0
  7  6  1  0
  6  8  1  0
  8  9  1  0
  9 10  1  0
  9 11  2  0
 10 12  1  0
 12 13  1  0
 13 14  2  0
 15 13  1  0
 14 16  1  0
 17 15  2  0
 16 18  2  0
 18 17  1  0
  4 19  2  0
  4 20  1  0
 21 20  1  0
 21 22  1  0
 22 23  1  0
 22 24  1  0
 23 25  1  0
 24 26  1  0
 24 27  1  0
 27 25  1  0
 25 28  1  0
 27 29  1  0
 30 28  1  0
 31 28  1  0
 32 30  2  0
 30 33  1  0
 34 31  2  0
 35 32  1  0
 33 36  2  0
 33 34  1  0
 37 35  2  0
 37 36  1  0
 36 38  1  0
  6 39  1  6
  7 40  1  0
  7 41  1  0
  8 42  1  0
  8 43  1  0
 12 44  1  0
 12 45  1  0
 14 46  1  0
 15 47  1  0
 16 48  1  0
 17 49  1  0
 18 50  1  0
 21 51  1  0
 21 52  1  0
 22 53  1  0
 24 54  1  0
 25 55  1  0
 26 56  1  0
 27 57  1  0
 29 58  1  0
 31 59  1  0
 35 60  1  0
 38 61  1  0
 38 62  1  0
M  CHG  1   5  -1
M  END
>  <EmbedRMS>  (200) 
0.08882618437002358

$$$$

     RDKit          3D

 62 65  0  0  0  0  0  0  0  0999 V2000
   10.2863   43.7709   33.8100 C   0  0  0  0  0  0  0  0  0  0  0  0
   11.4101   43.5817   34.3616 O   0  0  0  0  0  0  0  0  0  0  0  0
    9.3668   42.7309   33.7019 O   0  0  0  0  0  0  0  0  0  0  0  0
    9.8849   41.2328   34.2832 P   0  0  0  0  0  5  0  0  0  0  0  0
   10.3662   41.4672   35.8738 O   0  0  0  0  0  1  0  0  0  0  0  0
    9.9612   45.1120   33.2468 C   0  0  2  0  0  0  0  0  0  0  0  0
   11.0652   46.0483   33.4749 N   0  0  0  0  0  0  0  0  0  0  0  0
    8.6639   45.6567   33.8681 C   0  0  0  0  0  0  0  0  0  0  0  0
    8.2887   46.9673   33.2509 C   0  0  0  0  0  0  0  0  0  0  0  0
    7.7482   46.9870   31.9606 O   0  0  0  0  0  0  0  0  0  0  0  0
    8.5038   48.0409   33.8772 O   0  0  0  0  0  0  0  0  0  0  0  0
    7.5421   48.1873   31.2199 C   0  0  0  0  0  0  0  0  0  0  0  0
    8.8639   48.7759   30.8072 C   0  0  0  0  0  0  0  0  0  0  0  0
    9.7063   48.0636   29.9380 C   0  0  0  0  0  0  0  0  0  0  0  0
    9.2830   50.0199   31.3077 C   0  0  0  0  0  0  0  0  0  0  0  0
   10.9481   48.5913   29.5711 C   0  0  0  0  0  0  0  0  0  0  0  0
   10.5254   50.5446   30.9375 C   0  0  0  0  0  0  0  0  0  0  0  0
   11.3571   49.8312   30.0699 C   0  0  0  0  0  0  0  0  0  0  0  0
    8.8070   40.1904   34.2076 O   0  0  0  0  0  0  0  0  0  0  0  0
   11.2367   40.7901   33.3660 O   0  0  0  0  0  0  0  0  0  0  0  0
   10.9141   40.6850   31.9931 C   0  0  0  0  0  0  0  0  0  0  0  0
   11.5165   39.3773   31.4393 C   0  0  0  0  0  0  0  0  0  0  0  0
   12.7471   39.0855   32.0739 O   0  0  0  0  0  0  0  0  0  0  0  0
   10.6047   38.1867   31.6669 C   0  0  0  0  0  0  0  0  0  0  0  0
   12.9345   37.6791   32.0282 C   0  0  0  0  0  0  0  0  0  0  0  0
    9.6378   38.0917   30.6488 O   0  0  0  0  0  0  0  0  0  0  0  0
   11.5761   37.0129   31.7056 C   0  0  0  0  0  0  0  0  0  0  0  0
   13.4909   37.2177   33.3233 N   0  0  0  0  0  0  0  0  0  0  0  0
   11.6234   36.3371   30.4684 O   0  0  0  0  0  0  0  0  0  0  0  0
   14.4765   36.3272   33.5727 C   0  0  0  0  0  0  0  0  0  0  0  0
   13.1182   37.6316   34.5685 C   0  0  0  0  0  0  0  0  0  0  0  0
   15.2066   35.6137   32.6739 N   0  0  0  0  0  0  0  0  0  0  0  0
   14.6736   36.2276   34.9182 C   0  0  0  0  0  0  0  0  0  0  0  0
   13.8227   37.0457   35.5781 N   0  0  0  0  0  0  0  0  0  0  0  0
   16.1638   34.7593   33.1548 C   0  0  0  0  0  0  0  0  0  0  0  0
   15.6517   35.3492   35.4131 C   0  0  0  0  0  0  0  0  0  0  0  0
   16.3792   34.6309   34.5043 N   0  0  0  0  0  0  0  0  0  0  0  0
   15.9002   35.1934   36.8090 N   0  0  0  0  0  0  0  0  0  0  0  0
    9.8127   44.9943   32.1502 H   0  0  0  0  0  0  0  0  0  0  0  0
   11.9216   45.7041   32.9817 H   0  0  0  0  0  0  0  0  0  0  0  0
   11.2751   46.1182   34.4983 H   0  0  0  0  0  0  0  0  0  0  0  0
    7.8317   44.9403   33.6946 H   0  0  0  0  0  0  0  0  0  0  0  0
    8.7868   45.7771   34.9674 H   0  0  0  0  0  0  0  0  0  0  0  0
    6.9416   48.9047   31.8211 H   0  0  0  0  0  0  0  0  0  0  0  0
    6.9561   47.9464   30.3081 H   0  0  0  0  0  0  0  0  0  0  0  0
    9.4026   47.0989   29.5504 H   0  0  0  0  0  0  0  0  0  0  0  0
    8.6525   50.5810   31.9862 H   0  0  0  0  0  0  0  0  0  0  0  0
   11.5942   48.0381   28.9018 H   0  0  0  0  0  0  0  0  0  0  0  0
   10.8445   51.5033   31.3255 H   0  0  0  0  0  0  0  0  0  0  0  0
   12.3189   50.2381   29.7858 H   0  0  0  0  0  0  0  0  0  0  0  0
   11.3872   41.5416   31.4671 H   0  0  0  0  0  0  0  0  0  0  0  0
    9.8242   40.7213   31.7563 H   0  0  0  0  0  0  0  0  0  0  0  0
   11.6986   39.5013   30.3467 H   0  0  0  0  0  0  0  0  0  0  0  0
   10.1095   38.2771   32.6628 H   0  0  0  0  0  0  0  0  0  0  0  0
   13.6672   37.4545   31.2213 H   0  0  0  0  0  0  0  0  0  0  0  0
    8.9779   37.4157   30.9533 H   0  0  0  0  0  0  0  0  0  0  0  0
   11.2861   36.3041   32.5176 H   0  0  0  0  0  0  0  0  0  0  0  0
   10.8690   35.6918   30.4657 H   0  0  0  0  0  0  0  0  0  0  0  0
   12.3356   38.3587   34.7439 H   0  0  0  0  0  0  0  0  0  0  0  0
   16.7572   34.1786   32.4621 H   0  0  0  0  0  0  0  0  0  0  0  0
   15.3530   35.7358   37.5138 H   0  0  0  0  0  0  0  0  0  0  0  0
   16.6361   34.5315   37.1415 H   0  0  0  0  0  0  0  0  0  0  0  0
  1  2  2  0
  1  3  1  0
  3  4  1  0
  4  5  1  0
  6  1  1  0
  7  6  1  0
  6  8  1  0
  8  9  1  0
  9 10  1  0
  9 11  2  0
 10 12  1  0
 12 13  1  0
 13 14  2  0
 15 13  1  0
 14 16  1  0
 17 15  2  0
 16 18  2  0
 18 17  1  0
  4 19  2  0
  4 20  1  0
 21 20  1  0
 21 22  1  0
 22 23  1  0
 22 24  1  0
 23 25  1  0
 24 26  1  0
 24 27  1  0
 27 25  1  0
 25 28  1  0
 27 29  1  0
 30 28  1  0
 31 28  1  0
 32 30  2  0
 30 33  1  0
 34 31  2  0
 35 32  1  0
 33 36  2  0
 33 34  1  0
 37 35  2  0
 37 36  1  0
 36 38  1  0
  6 39  1  6
  7 40  1  0
  7 41  1  0
  8 42  1  0
  8 43  1  0
 12 44  1  0
 12 45  1  0
 14 46  1  0
 15 47  1  0
 16 48  1  0
 17 49  1  0
 18 50  1  0
 21 51  1  0
 21 52  1  0
 22 53  1  0
 24 54  1  0
 25 55  1  0
 26 56  1  0
 27 57  1  0
 29 58  1  0
 31 59  1  0
 35 60  1  0
 38 61  1  0
 38 62  1  0
M  CHG  1   5  -1
M  END
>  <EmbedRMS>  (201) 
0.08951333320961068

$$$$

     RDKit          3D

 62 65  0  0  0  0  0  0  0  0999 V2000
   10.2842   43.7718   33.8118 C   0  0  0  0  0  0  0  0  0  0  0  0
   11.4082   43.5830   34.3634 O   0  0  0  0  0  0  0  0  0  0  0  0
    9.3699   42.7282   33.6983 O   0  0  0  0  0  0  0  0  0  0  0  0
    9.8855   41.2321   34.2843 P   0  0  0  0  0  5  0  0  0  0  0  0
   10.3644   41.4685   35.8751 O   0  0  0  0  0  1  0  0  0  0  0  0
    9.9560   45.1187   33.2540 C   0  0  2  0  0  0  0  0  0  0  0  0
   11.0697   46.0448   33.4687 N   0  0  0  0  0  0  0  0  0  0  0  0
    8.6817   45.7041   33.8921 C   0  0  0  0  0  0  0  0  0  0  0  0
    7.4495   44.9590   33.4779 C   0  0  0  0  0  0  0  0  0  0  0  0
    6.8549   44.0621   34.3727 O   0  0  0  0  0  0  0  0  0  0  0  0
    6.9798   45.1217   32.3187 O   0  0  0  0  0  0  0  0  0  0  0  0
    5.7072   43.2799   34.0512 C   0  0  0  0  0  0  0  0  0  0  0  0
    4.4792   44.1468   33.9948 C   0  0  0  0  0  0  0  0  0  0  0  0
    3.9889   44.7439   35.1674 C   0  0  0  0  0  0  0  0  0  0  0  0
    3.8279   44.3886   32.7736 C   0  0  0  0  0  0  0  0  0  0  0  0
    2.8580   45.5652   35.1196 C   0  0  0  0  0  0  0  0  0  0  0  0
    2.6974   45.2107   32.7301 C   0  0  0  0  0  0  0  0  0  0  0  0
    2.2124   45.7979   33.9021 C   0  0  0  0  0  0  0  0  0  0  0  0
    8.8071   40.1904   34.2074 O   0  0  0  0  0  0  0  0  0  0  0  0
   11.2382   40.7886   33.3700 O   0  0  0  0  0  0  0  0  0  0  0  0
   10.9192   40.6901   31.9963 C   0  0  0  0  0  0  0  0  0  0  0  0
   11.5176   39.3822   31.4409 C   0  0  0  0  0  0  0  0  0  0  0  0
   12.7496   39.0891   32.0752 O   0  0  0  0  0  0  0  0  0  0  0  0
   10.6036   38.1899   31.6659 C   0  0  0  0  0  0  0  0  0  0  0  0
   12.9401   37.6832   32.0275 C   0  0  0  0  0  0  0  0  0  0  0  0
    9.6376   38.0785   30.6474 O   0  0  0  0  0  0  0  0  0  0  0  0
   11.5803   37.0203   31.6936 C   0  0  0  0  0  0  0  0  0  0  0  0
   13.4902   37.2177   33.3237 N   0  0  0  0  0  0  0  0  0  0  0  0
   11.6117   36.3192   30.4680 O   0  0  0  0  0  0  0  0  0  0  0  0
   14.4759   36.3271   33.5731 C   0  0  0  0  0  0  0  0  0  0  0  0
   13.1175   37.6317   34.5687 C   0  0  0  0  0  0  0  0  0  0  0  0
   15.2064   35.6141   32.6742 N   0  0  0  0  0  0  0  0  0  0  0  0
   14.6729   36.2274   34.9184 C   0  0  0  0  0  0  0  0  0  0  0  0
   13.8221   37.0458   35.5783 N   0  0  0  0  0  0  0  0  0  0  0  0
   16.1637   34.7597   33.1549 C   0  0  0  0  0  0  0  0  0  0  0  0
   15.6514   35.3493   35.4133 C   0  0  0  0  0  0  0  0  0  0  0  0
   16.3791   34.6312   34.5044 N   0  0  0  0  0  0  0  0  0  0  0  0
   15.9001   35.1935   36.8091 N   0  0  0  0  0  0  0  0  0  0  0  0
    9.7968   45.0143   32.1577 H   0  0  0  0  0  0  0  0  0  0  0  0
   11.9189   45.6916   32.9691 H   0  0  0  0  0  0  0  0  0  0  0  0
   11.2900   46.1159   34.4899 H   0  0  0  0  0  0  0  0  0  0  0  0
    8.5683   46.7650   33.5789 H   0  0  0  0  0  0  0  0  0  0  0  0
    8.7699   45.6917   35.0008 H   0  0  0  0  0  0  0  0  0  0  0  0
    5.5694   42.5116   34.8410 H   0  0  0  0  0  0  0  0  0  0  0  0
    5.8736   42.7400   33.0931 H   0  0  0  0  0  0  0  0  0  0  0  0
    4.4836   44.5741   36.1158 H   0  0  0  0  0  0  0  0  0  0  0  0
    4.1949   43.9444   31.8567 H   0  0  0  0  0  0  0  0  0  0  0  0
    2.4832   46.0224   36.0262 H   0  0  0  0  0  0  0  0  0  0  0  0
    2.1982   45.3939   31.7874 H   0  0  0  0  0  0  0  0  0  0  0  0
    1.3377   46.4344   33.8664 H   0  0  0  0  0  0  0  0  0  0  0  0
    9.8314   40.7399   31.7558 H   0  0  0  0  0  0  0  0  0  0  0  0
   11.4007   41.5453   31.4757 H   0  0  0  0  0  0  0  0  0  0  0  0
   11.6988   39.5092   30.3487 H   0  0  0  0  0  0  0  0  0  0  0  0
   10.1131   38.2589   32.6663 H   0  0  0  0  0  0  0  0  0  0  0  0
   13.6800   37.4624   31.2265 H   0  0  0  0  0  0  0  0  0  0  0  0
    8.8954   38.6911   30.8890 H   0  0  0  0  0  0  0  0  0  0  0  0
   11.2830   36.3059   32.4929 H   0  0  0  0  0  0  0  0  0  0  0  0
   11.8858   36.9588   29.7592 H   0  0  0  0  0  0  0  0  0  0  0  0
   12.3360   38.3600   34.7441 H   0  0  0  0  0  0  0  0  0  0  0  0
   16.7573   34.1793   32.4621 H   0  0  0  0  0  0  0  0  0  0  0  0
   15.3528   35.7357   37.5140 H   0  0  0  0  0  0  0  0  0  0  0  0
   16.6362   34.5318   37.1416 H   0  0  0  0  0  0  0  0  0  0  0  0
  1  2  2  0
  1  3  1  0
  3  4  1  0
  4  5  1  0
  6  1  1  0
  7  6  1  0
  6  8  1  0
  8  9  1  0
  9 10  1  0
  9 11  2  0
 10 12  1  0
 12 13  1  0
 13 14  2  0
 15 13  1  0
 14 16  1  0
 17 15  2  0
 16 18  2  0
 18 17  1  0
  4 19  2  0
  4 20  1  0
 21 20  1  0
 21 22  1  0
 22 23  1  0
 22 24  1  0
 23 25  1  0
 24 26  1  0
 24 27  1  0
 27 25  1  0
 25 28  1  0
 27 29  1  0
 30 28  1  0
 31 28  1  0
 32 30  2  0
 30 33  1  0
 34 31  2  0
 35 32  1  0
 33 36  2  0
 33 34  1  0
 37 35  2  0
 37 36  1  0
 36 38  1  0
  6 39  1  6
  7 40  1  0
  7 41  1  0
  8 42  1  0
  8 43  1  0
 12 44  1  0
 12 45  1  0
 14 46  1  0
 15 47  1  0
 16 48  1  0
 17 49  1  0
 18 50  1  0
 21 51  1  0
 21 52  1  0
 22 53  1  0
 24 54  1  0
 25 55  1  0
 26 56  1  0
 27 57  1  0
 29 58  1  0
 31 59  1  0
 35 60  1  0
 38 61  1  0
 38 62  1  0
M  CHG  1   5  -1
M  END
>  <EmbedRMS>  (202) 
0.08917913656976045

$$$$

     RDKit          3D

 62 65  0  0  0  0  0  0  0  0999 V2000
   10.2872   43.7714   33.8026 C   0  0  0  0  0  0  0  0  0  0  0  0
   11.4091   43.5882   34.3603 O   0  0  0  0  0  0  0  0  0  0  0  0
    9.3679   42.7308   33.6992 O   0  0  0  0  0  0  0  0  0  0  0  0
    9.8852   41.2341   34.2846 P   0  0  0  0  0  5  0  0  0  0  0  0
   10.3664   41.4691   35.8742 O   0  0  0  0  0  1  0  0  0  0  0  0
    9.9540   45.1146   33.2512 C   0  0  2  0  0  0  0  0  0  0  0  0
   11.0692   46.0350   33.4803 N   0  0  0  0  0  0  0  0  0  0  0  0
    8.6562   45.6646   33.8783 C   0  0  0  0  0  0  0  0  0  0  0  0
    8.7829   45.8835   35.3574 C   0  0  0  0  0  0  0  0  0  0  0  0
    8.7805   44.7806   36.2154 O   0  0  0  0  0  0  0  0  0  0  0  0
    8.9163   47.0526   35.8115 O   0  0  0  0  0  0  0  0  0  0  0  0
    8.8945   44.8991   37.6285 C   0  0  0  0  0  0  0  0  0  0  0  0
    8.9637   43.5267   38.2314 C   0  0  0  0  0  0  0  0  0  0  0  0
    7.8250   42.7046   38.2339 C   0  0  0  0  0  0  0  0  0  0  0  0
   10.1733   43.0304   38.7465 C   0  0  0  0  0  0  0  0  0  0  0  0
    7.8927   41.4093   38.7564 C   0  0  0  0  0  0  0  0  0  0  0  0
   10.2360   41.7350   39.2701 C   0  0  0  0  0  0  0  0  0  0  0  0
    9.0968   40.9253   39.2751 C   0  0  0  0  0  0  0  0  0  0  0  0
    8.8076   40.1914   34.2090 O   0  0  0  0  0  0  0  0  0  0  0  0
   11.2378   40.7900   33.3699 O   0  0  0  0  0  0  0  0  0  0  0  0
   10.9187   40.6904   31.9964 C   0  0  0  0  0  0  0  0  0  0  0  0
   11.5174   39.3824   31.4412 C   0  0  0  0  0  0  0  0  0  0  0  0
   12.7494   39.0893   32.0756 O   0  0  0  0  0  0  0  0  0  0  0  0
   10.6036   38.1899   31.6660 C   0  0  0  0  0  0  0  0  0  0  0  0
   12.9400   37.6834   32.0276 C   0  0  0  0  0  0  0  0  0  0  0  0
    9.6376   38.0785   30.6475 O   0  0  0  0  0  0  0  0  0  0  0  0
   11.5803   37.0204   31.6937 C   0  0  0  0  0  0  0  0  0  0  0  0
   13.4901   37.2178   33.3238 N   0  0  0  0  0  0  0  0  0  0  0  0
   11.6118   36.3193   30.4680 O   0  0  0  0  0  0  0  0  0  0  0  0
   14.4758   36.3272   33.5731 C   0  0  0  0  0  0  0  0  0  0  0  0
   13.1175   37.6318   34.5689 C   0  0  0  0  0  0  0  0  0  0  0  0
   15.2063   35.6142   32.6742 N   0  0  0  0  0  0  0  0  0  0  0  0
   14.6729   36.2275   34.9185 C   0  0  0  0  0  0  0  0  0  0  0  0
   13.8221   37.0458   35.5784 N   0  0  0  0  0  0  0  0  0  0  0  0
   16.1636   34.7597   33.1549 C   0  0  0  0  0  0  0  0  0  0  0  0
   15.6513   35.3493   35.4133 C   0  0  0  0  0  0  0  0  0  0  0  0
   16.3791   34.6312   34.5044 N   0  0  0  0  0  0  0  0  0  0  0  0
   15.9001   35.1935   36.8091 N   0  0  0  0  0  0  0  0  0  0  0  0
    9.7906   45.0045   32.1554 H   0  0  0  0  0  0  0  0  0  0  0  0
   10.8072   46.9734   33.0993 H   0  0  0  0  0  0  0  0  0  0  0  0
   11.8836   45.7170   32.9047 H   0  0  0  0  0  0  0  0  0  0  0  0
    8.3864   46.6227   33.3824 H   0  0  0  0  0  0  0  0  0  0  0  0
    7.8188   44.9583   33.6899 H   0  0  0  0  0  0  0  0  0  0  0  0
    9.8042   45.4862   37.8832 H   0  0  0  0  0  0  0  0  0  0  0  0
    8.0094   45.4386   38.0301 H   0  0  0  0  0  0  0  0  0  0  0  0
    6.8887   43.0656   37.8263 H   0  0  0  0  0  0  0  0  0  0  0  0
   11.0673   43.6413   38.7382 H   0  0  0  0  0  0  0  0  0  0  0  0
    7.0125   40.7795   38.7559 H   0  0  0  0  0  0  0  0  0  0  0  0
   11.1694   41.3568   39.6665 H   0  0  0  0  0  0  0  0  0  0  0  0
    9.1481   39.9218   39.6775 H   0  0  0  0  0  0  0  0  0  0  0  0
    9.8308   40.7395   31.7562 H   0  0  0  0  0  0  0  0  0  0  0  0
   11.3997   41.5455   31.4751 H   0  0  0  0  0  0  0  0  0  0  0  0
   11.6988   39.5093   30.3490 H   0  0  0  0  0  0  0  0  0  0  0  0
   10.1130   38.2588   32.6665 H   0  0  0  0  0  0  0  0  0  0  0  0
   13.6800   37.4627   31.2266 H   0  0  0  0  0  0  0  0  0  0  0  0
    8.8951   38.6907   30.8893 H   0  0  0  0  0  0  0  0  0  0  0  0
   11.2830   36.3060   32.4929 H   0  0  0  0  0  0  0  0  0  0  0  0
   11.8859   36.9589   29.7593 H   0  0  0  0  0  0  0  0  0  0  0  0
   12.3360   38.3601   34.7443 H   0  0  0  0  0  0  0  0  0  0  0  0
   16.7572   34.1793   32.4621 H   0  0  0  0  0  0  0  0  0  0  0  0
   15.3528   35.7357   37.5140 H   0  0  0  0  0  0  0  0  0  0  0  0
   16.6361   34.5318   37.1416 H   0  0  0  0  0  0  0  0  0  0  0  0
  1  2  2  0
  1  3  1  0
  3  4  1  0
  4  5  1  0
  6  1  1  0
  7  6  1  0
  6  8  1  0
  8  9  1  0
  9 10  1  0
  9 11  2  0
 10 12  1  0
 12 13  1  0
 13 14  2  0
 15 13  1  0
 14 16  1  0
 17 15  2  0
 16 18  2  0
 18 17  1  0
  4 19  2  0
  4 20  1  0
 21 20  1  0
 21 22  1  0
 22 23  1  0
 22 24  1  0
 23 25  1  0
 24 26  1  0
 24 27  1  0
 27 25  1  0
 25 28  1  0
 27 29  1  0
 30 28  1  0
 31 28  1  0
 32 30  2  0
 30 33  1  0
 34 31  2  0
 35 32  1  0
 33 36  2  0
 33 34  1  0
 37 35  2  0
 37 36  1  0
 36 38  1  0
  6 39  1  6
  7 40  1  0
  7 41  1  0
  8 42  1  0
  8 43  1  0
 12 44  1  0
 12 45  1  0
 14 46  1  0
 15 47  1  0
 16 48  1  0
 17 49  1  0
 18 50  1  0
 21 51  1  0
 21 52  1  0
 22 53  1  0
 24 54  1  0
 25 55  1  0
 26 56  1  0
 27 57  1  0
 29 58  1  0
 31 59  1  0
 35 60  1  0
 38 61  1  0
 38 62  1  0
M  CHG  1   5  -1
M  END
>  <EmbedRMS>  (203) 
0.08834778618288383

$$$$

     RDKit          3D

 62 65  0  0  0  0  0  0  0  0999 V2000
   10.2860   43.7720   33.8047 C   0  0  0  0  0  0  0  0  0  0  0  0
   11.4085   43.5886   34.3612 O   0  0  0  0  0  0  0  0  0  0  0  0
    9.3678   42.7307   33.6990 O   0  0  0  0  0  0  0  0  0  0  0  0
    9.8859   41.2338   34.2835 P   0  0  0  0  0  5  0  0  0  0  0  0
   10.3655   41.4699   35.8743 O   0  0  0  0  0  1  0  0  0  0  0  0
    9.9529   45.1147   33.2534 C   0  0  2  0  0  0  0  0  0  0  0  0
   11.0714   46.0331   33.4765 N   0  0  0  0  0  0  0  0  0  0  0  0
    8.6600   45.6656   33.8889 C   0  0  0  0  0  0  0  0  0  0  0  0
    8.7923   45.8605   35.3704 C   0  0  0  0  0  0  0  0  0  0  0  0
    9.4232   47.0077   35.8584 O   0  0  0  0  0  0  0  0  0  0  0  0
    8.3691   44.9728   36.1606 O   0  0  0  0  0  0  0  0  0  0  0  0
    9.6362   47.2360   37.2465 C   0  0  0  0  0  0  0  0  0  0  0  0
   10.3731   48.5304   37.4252 C   0  0  0  0  0  0  0  0  0  0  0  0
   11.7739   48.5638   37.3269 C   0  0  0  0  0  0  0  0  0  0  0  0
    9.6672   49.7287   37.6224 C   0  0  0  0  0  0  0  0  0  0  0  0
   12.4597   49.7759   37.4540 C   0  0  0  0  0  0  0  0  0  0  0  0
   10.3568   50.9388   37.7492 C   0  0  0  0  0  0  0  0  0  0  0  0
   11.7519   50.9621   37.6676 C   0  0  0  0  0  0  0  0  0  0  0  0
    8.8083   40.1910   34.2076 O   0  0  0  0  0  0  0  0  0  0  0  0
   11.2386   40.7898   33.3687 O   0  0  0  0  0  0  0  0  0  0  0  0
   10.9197   40.6894   31.9948 C   0  0  0  0  0  0  0  0  0  0  0  0
   11.5172   39.3800   31.4396 C   0  0  0  0  0  0  0  0  0  0  0  0
   12.7480   39.0860   32.0732 O   0  0  0  0  0  0  0  0  0  0  0  0
   10.6032   38.1891   31.6666 C   0  0  0  0  0  0  0  0  0  0  0  0
   12.9336   37.6796   32.0279 C   0  0  0  0  0  0  0  0  0  0  0  0
    9.6397   38.0777   30.6456 O   0  0  0  0  0  0  0  0  0  0  0  0
   11.5739   37.0154   31.7057 C   0  0  0  0  0  0  0  0  0  0  0  0
   13.4903   37.2178   33.3231 N   0  0  0  0  0  0  0  0  0  0  0  0
   11.6211   36.3376   30.4695 O   0  0  0  0  0  0  0  0  0  0  0  0
   14.4761   36.3273   33.5725 C   0  0  0  0  0  0  0  0  0  0  0  0
   13.1179   37.6316   34.5684 C   0  0  0  0  0  0  0  0  0  0  0  0
   15.2063   35.6139   32.6737 N   0  0  0  0  0  0  0  0  0  0  0  0
   14.6734   36.2277   34.9180 C   0  0  0  0  0  0  0  0  0  0  0  0
   13.8225   37.0459   35.5779 N   0  0  0  0  0  0  0  0  0  0  0  0
   16.1636   34.7594   33.1546 C   0  0  0  0  0  0  0  0  0  0  0  0
   15.6515   35.3494   35.4129 C   0  0  0  0  0  0  0  0  0  0  0  0
   16.3791   34.6311   34.5041 N   0  0  0  0  0  0  0  0  0  0  0  0
   15.9001   35.1935   36.8088 N   0  0  0  0  0  0  0  0  0  0  0  0
    9.7833   45.0053   32.1585 H   0  0  0  0  0  0  0  0  0  0  0  0
   11.8826   45.7127   32.8978 H   0  0  0  0  0  0  0  0  0  0  0  0
   10.8102   46.9719   33.0960 H   0  0  0  0  0  0  0  0  0  0  0  0
    7.8132   44.9764   33.6765 H   0  0  0  0  0  0  0  0  0  0  0  0
    8.4061   46.6411   33.4212 H   0  0  0  0  0  0  0  0  0  0  0  0
    8.6583   47.2708   37.7750 H   0  0  0  0  0  0  0  0  0  0  0  0
   10.2301   46.4001   37.6773 H   0  0  0  0  0  0  0  0  0  0  0  0
   12.3330   47.6530   37.1509 H   0  0  0  0  0  0  0  0  0  0  0  0
    8.5855   49.7262   37.6772 H   0  0  0  0  0  0  0  0  0  0  0  0
   13.5395   49.7962   37.3829 H   0  0  0  0  0  0  0  0  0  0  0  0
    9.8093   51.8591   37.9067 H   0  0  0  0  0  0  0  0  0  0  0  0
   12.2840   51.8997   37.7643 H   0  0  0  0  0  0  0  0  0  0  0  0
   11.4016   41.5436   31.4731 H   0  0  0  0  0  0  0  0  0  0  0  0
    9.8319   40.7398   31.7546 H   0  0  0  0  0  0  0  0  0  0  0  0
   11.6983   39.5042   30.3470 H   0  0  0  0  0  0  0  0  0  0  0  0
   10.1090   38.2632   32.6649 H   0  0  0  0  0  0  0  0  0  0  0  0
   13.6656   37.4539   31.2207 H   0  0  0  0  0  0  0  0  0  0  0  0
    8.8966   38.6901   30.8852 H   0  0  0  0  0  0  0  0  0  0  0  0
   11.2846   36.3060   32.5175 H   0  0  0  0  0  0  0  0  0  0  0  0
   10.8523   35.7094   30.4590 H   0  0  0  0  0  0  0  0  0  0  0  0
   12.3353   38.3588   34.7439 H   0  0  0  0  0  0  0  0  0  0  0  0
   16.7570   34.1788   32.4619 H   0  0  0  0  0  0  0  0  0  0  0  0
   16.6360   34.5317   37.1413 H   0  0  0  0  0  0  0  0  0  0  0  0
   15.3529   35.7359   37.5136 H   0  0  0  0  0  0  0  0  0  0  0  0
  1  2  2  0
  1  3  1  0
  3  4  1  0
  4  5  1  0
  6  1  1  0
  7  6  1  0
  6  8  1  0
  8  9  1  0
  9 10  1  0
  9 11  2  0
 10 12  1  0
 12 13  1  0
 13 14  2  0
 15 13  1  0
 14 16  1  0
 17 15  2  0
 16 18  2  0
 18 17  1  0
  4 19  2  0
  4 20  1  0
 21 20  1  0
 21 22  1  0
 22 23  1  0
 22 24  1  0
 23 25  1  0
 24 26  1  0
 24 27  1  0
 27 25  1  0
 25 28  1  0
 27 29  1  0
 30 28  1  0
 31 28  1  0
 32 30  2  0
 30 33  1  0
 34 31  2  0
 35 32  1  0
 33 36  2  0
 33 34  1  0
 37 35  2  0
 37 36  1  0
 36 38  1  0
  6 39  1  6
  7 40  1  0
  7 41  1  0
  8 42  1  0
  8 43  1  0
 12 44  1  0
 12 45  1  0
 14 46  1  0
 15 47  1  0
 16 48  1  0
 17 49  1  0
 18 50  1  0
 21 51  1  0
 21 52  1  0
 22 53  1  0
 24 54  1  0
 25 55  1  0
 26 56  1  0
 27 57  1  0
 29 58  1  0
 31 59  1  0
 35 60  1  0
 38 61  1  0
 38 62  1  0
M  CHG  1   5  -1
M  END
>  <EmbedRMS>  (204) 
0.0894603341544619

$$$$

     RDKit          3D

 62 65  0  0  0  0  0  0  0  0999 V2000
   10.2846   43.7728   33.8068 C   0  0  0  0  0  0  0  0  0  0  0  0
   11.4071   43.5892   34.3632 O   0  0  0  0  0  0  0  0  0  0  0  0
    9.3705   42.7294   33.6933 O   0  0  0  0  0  0  0  0  0  0  0  0
    9.8858   41.2342   34.2836 P   0  0  0  0  0  5  0  0  0  0  0  0
   10.3656   41.4722   35.8740 O   0  0  0  0  0  1  0  0  0  0  0  0
    9.9485   45.1177   33.2630 C   0  0  2  0  0  0  0  0  0  0  0  0
   11.0744   46.0306   33.4701 N   0  0  0  0  0  0  0  0  0  0  0  0
    8.6651   45.6760   33.9173 C   0  0  0  0  0  0  0  0  0  0  0  0
    8.7893   45.8234   35.4179 C   0  0  0  0  0  0  0  0  0  0  0  0
    8.0757   45.0284   36.3257 O   0  0  0  0  0  0  0  0  0  0  0  0
    9.5758   46.6929   35.8774 O   0  0  0  0  0  0  0  0  0  0  0  0
    7.0456   44.1127   35.9667 C   0  0  0  0  0  0  0  0  0  0  0  0
    6.5200   43.4513   37.2065 C   0  0  0  0  0  0  0  0  0  0  0  0
    5.5574   44.0993   37.9978 C   0  0  0  0  0  0  0  0  0  0  0  0
    7.0289   42.2086   37.6197 C   0  0  0  0  0  0  0  0  0  0  0  0
    5.0921   43.4994   39.1723 C   0  0  0  0  0  0  0  0  0  0  0  0
    6.5608   41.6121   38.7948 C   0  0  0  0  0  0  0  0  0  0  0  0
    5.5918   42.2559   39.5694 C   0  0  0  0  0  0  0  0  0  0  0  0
    8.8076   40.1920   34.2088 O   0  0  0  0  0  0  0  0  0  0  0  0
   11.2383   40.7885   33.3701 O   0  0  0  0  0  0  0  0  0  0  0  0
   10.9195   40.6901   31.9963 C   0  0  0  0  0  0  0  0  0  0  0  0
   11.5178   39.3822   31.4409 C   0  0  0  0  0  0  0  0  0  0  0  0
   12.7497   39.0890   32.0752 O   0  0  0  0  0  0  0  0  0  0  0  0
   10.6037   38.1899   31.6659 C   0  0  0  0  0  0  0  0  0  0  0  0
   12.9401   37.6831   32.0275 C   0  0  0  0  0  0  0  0  0  0  0  0
    9.6376   38.0785   30.6475 O   0  0  0  0  0  0  0  0  0  0  0  0
   11.5803   37.0202   31.6936 C   0  0  0  0  0  0  0  0  0  0  0  0
   13.4902   37.2176   33.3237 N   0  0  0  0  0  0  0  0  0  0  0  0
   11.6117   36.3192   30.4680 O   0  0  0  0  0  0  0  0  0  0  0  0
   14.4759   36.3271   33.5731 C   0  0  0  0  0  0  0  0  0  0  0  0
   13.1175   37.6317   34.5687 C   0  0  0  0  0  0  0  0  0  0  0  0
   15.2064   35.6141   32.6742 N   0  0  0  0  0  0  0  0  0  0  0  0
   14.6729   36.2274   34.9184 C   0  0  0  0  0  0  0  0  0  0  0  0
   13.8221   37.0458   35.5783 N   0  0  0  0  0  0  0  0  0  0  0  0
   16.1637   34.7596   33.1549 C   0  0  0  0  0  0  0  0  0  0  0  0
   15.6514   35.3493   35.4133 C   0  0  0  0  0  0  0  0  0  0  0  0
   16.3791   34.6312   34.5044 N   0  0  0  0  0  0  0  0  0  0  0  0
   15.9001   35.1935   36.8091 N   0  0  0  0  0  0  0  0  0  0  0  0
    9.7636   45.0109   32.1703 H   0  0  0  0  0  0  0  0  0  0  0  0
   10.8157   46.9679   33.0844 H   0  0  0  0  0  0  0  0  0  0  0  0
   11.8785   45.7015   32.8864 H   0  0  0  0  0  0  0  0  0  0  0  0
    7.8067   45.0307   33.6419 H   0  0  0  0  0  0  0  0  0  0  0  0
    8.4428   46.6754   33.4849 H   0  0  0  0  0  0  0  0  0  0  0  0
    6.2224   44.6566   35.4541 H   0  0  0  0  0  0  0  0  0  0  0  0
    7.4419   43.3450   35.2711 H   0  0  0  0  0  0  0  0  0  0  0  0
    5.1691   45.0672   37.7055 H   0  0  0  0  0  0  0  0  0  0  0  0
    7.7847   41.7019   37.0332 H   0  0  0  0  0  0  0  0  0  0  0  0
    4.3466   44.0001   39.7765 H   0  0  0  0  0  0  0  0  0  0  0  0
    6.9518   40.6522   39.1064 H   0  0  0  0  0  0  0  0  0  0  0  0
    5.2315   41.7935   40.4792 H   0  0  0  0  0  0  0  0  0  0  0  0
    9.8318   40.7397   31.7556 H   0  0  0  0  0  0  0  0  0  0  0  0
   11.4012   41.5452   31.4757 H   0  0  0  0  0  0  0  0  0  0  0  0
   11.6990   39.5091   30.3487 H   0  0  0  0  0  0  0  0  0  0  0  0
   10.1132   38.2590   32.6664 H   0  0  0  0  0  0  0  0  0  0  0  0
   13.6801   37.4622   31.2265 H   0  0  0  0  0  0  0  0  0  0  0  0
    8.8954   38.6909   30.8892 H   0  0  0  0  0  0  0  0  0  0  0  0
   11.2830   36.3059   32.4929 H   0  0  0  0  0  0  0  0  0  0  0  0
   11.8859   36.9588   29.7593 H   0  0  0  0  0  0  0  0  0  0  0  0
   12.3359   38.3599   34.7441 H   0  0  0  0  0  0  0  0  0  0  0  0
   16.7573   34.1793   32.4621 H   0  0  0  0  0  0  0  0  0  0  0  0
   15.3528   35.7357   37.5140 H   0  0  0  0  0  0  0  0  0  0  0  0
   16.6362   34.5318   37.1416 H   0  0  0  0  0  0  0  0  0  0  0  0
  1  2  2  0
  1  3  1  0
  3  4  1  0
  4  5  1  0
  6  1  1  0
  7  6  1  0
  6  8  1  0
  8  9  1  0
  9 10  1  0
  9 11  2  0
 10 12  1  0
 12 13  1  0
 13 14  2  0
 15 13  1  0
 14 16  1  0
 17 15  2  0
 16 18  2  0
 18 17  1  0
  4 19  2  0
  4 20  1  0
 21 20  1  0
 21 22  1  0
 22 23  1  0
 22 24  1  0
 23 25  1  0
 24 26  1  0
 24 27  1  0
 27 25  1  0
 25 28  1  0
 27 29  1  0
 30 28  1  0
 31 28  1  0
 32 30  2  0
 30 33  1  0
 34 31  2  0
 35 32  1  0
 33 36  2  0
 33 34  1  0
 37 35  2  0
 37 36  1  0
 36 38  1  0
  6 39  1  6
  7 40  1  0
  7 41  1  0
  8 42  1  0
  8 43  1  0
 12 44  1  0
 12 45  1  0
 14 46  1  0
 15 47  1  0
 16 48  1  0
 17 49  1  0
 18 50  1  0
 21 51  1  0
 21 52  1  0
 22 53  1  0
 24 54  1  0
 25 55  1  0
 26 56  1  0
 27 57  1  0
 29 58  1  0
 31 59  1  0
 35 60  1  0
 38 61  1  0
 38 62  1  0
M  CHG  1   5  -1
M  END
>  <EmbedRMS>  (205) 
0.08851882389525415

$$$$

     RDKit          3D

 62 65  0  0  0  0  0  0  0  0999 V2000
   10.2844   43.7742   33.8069 C   0  0  0  0  0  0  0  0  0  0  0  0
   11.4068   43.5903   34.3637 O   0  0  0  0  0  0  0  0  0  0  0  0
    9.3680   42.7310   33.6989 O   0  0  0  0  0  0  0  0  0  0  0  0
    9.8860   41.2342   34.2839 P   0  0  0  0  0  5  0  0  0  0  0  0
   10.3656   41.4697   35.8747 O   0  0  0  0  0  1  0  0  0  0  0  0
    9.9492   45.1162   33.2547 C   0  0  2  0  0  0  0  0  0  0  0  0
   11.0754   46.0282   33.4731 N   0  0  0  0  0  0  0  0  0  0  0  0
    8.6773   45.6529   33.9414 C   0  0  0  0  0  0  0  0  0  0  0  0
    8.1863   46.9073   33.2881 C   0  0  0  0  0  0  0  0  0  0  0  0
    8.4681   48.1454   33.8762 O   0  0  0  0  0  0  0  0  0  0  0  0
    7.5533   46.8389   32.1992 O   0  0  0  0  0  0  0  0  0  0  0  0
    8.1687   49.3923   33.2535 C   0  0  0  0  0  0  0  0  0  0  0  0
    9.1044   49.6356   32.1011 C   0  0  0  0  0  0  0  0  0  0  0  0
   10.4648   49.8848   32.3444 C   0  0  0  0  0  0  0  0  0  0  0  0
    8.6410   49.5747   30.7762 C   0  0  0  0  0  0  0  0  0  0  0  0
   11.3472   50.0791   31.2772 C   0  0  0  0  0  0  0  0  0  0  0  0
    9.5266   49.7704   29.7116 C   0  0  0  0  0  0  0  0  0  0  0  0
   10.8783   50.0229   29.9618 C   0  0  0  0  0  0  0  0  0  0  0  0
    8.8086   40.1912   34.2076 O   0  0  0  0  0  0  0  0  0  0  0  0
   11.2387   40.7906   33.3693 O   0  0  0  0  0  0  0  0  0  0  0  0
   10.9192   40.6905   31.9959 C   0  0  0  0  0  0  0  0  0  0  0  0
   11.5177   39.3823   31.4410 C   0  0  0  0  0  0  0  0  0  0  0  0
   12.7496   39.0892   32.0754 O   0  0  0  0  0  0  0  0  0  0  0  0
   10.6037   38.1900   31.6659 C   0  0  0  0  0  0  0  0  0  0  0  0
   12.9401   37.6833   32.0276 C   0  0  0  0  0  0  0  0  0  0  0  0
    9.6377   38.0785   30.6474 O   0  0  0  0  0  0  0  0  0  0  0  0
   11.5804   37.0203   31.6937 C   0  0  0  0  0  0  0  0  0  0  0  0
   13.4902   37.2177   33.3237 N   0  0  0  0  0  0  0  0  0  0  0  0
   11.6117   36.3192   30.4680 O   0  0  0  0  0  0  0  0  0  0  0  0
   14.4759   36.3271   33.5731 C   0  0  0  0  0  0  0  0  0  0  0  0
   13.1176   37.6317   34.5688 C   0  0  0  0  0  0  0  0  0  0  0  0
   15.2064   35.6141   32.6742 N   0  0  0  0  0  0  0  0  0  0  0  0
   14.6729   36.2274   34.9184 C   0  0  0  0  0  0  0  0  0  0  0  0
   13.8221   37.0457   35.5783 N   0  0  0  0  0  0  0  0  0  0  0  0
   16.1637   34.7596   33.1549 C   0  0  0  0  0  0  0  0  0  0  0  0
   15.6514   35.3493   35.4133 C   0  0  0  0  0  0  0  0  0  0  0  0
   16.3791   34.6312   34.5044 N   0  0  0  0  0  0  0  0  0  0  0  0
   15.9001   35.1935   36.8091 N   0  0  0  0  0  0  0  0  0  0  0  0
    9.7641   45.0046   32.1620 H   0  0  0  0  0  0  0  0  0  0  0  0
   11.8965   45.6756   32.9280 H   0  0  0  0  0  0  0  0  0  0  0  0
   10.8473   46.9536   33.0441 H   0  0  0  0  0  0  0  0  0  0  0  0
    7.8646   44.8955   33.8874 H   0  0  0  0  0  0  0  0  0  0  0  0
    8.8830   45.8512   35.0163 H   0  0  0  0  0  0  0  0  0  0  0  0
    8.2989   50.2030   34.0013 H   0  0  0  0  0  0  0  0  0  0  0  0
    7.1049   49.4108   32.9294 H   0  0  0  0  0  0  0  0  0  0  0  0
   10.8410   49.9223   33.3594 H   0  0  0  0  0  0  0  0  0  0  0  0
    7.5980   49.3723   30.5668 H   0  0  0  0  0  0  0  0  0  0  0  0
   12.3949   50.2704   31.4699 H   0  0  0  0  0  0  0  0  0  0  0  0
    9.1653   49.7233   28.6924 H   0  0  0  0  0  0  0  0  0  0  0  0
   11.5625   50.1724   29.1367 H   0  0  0  0  0  0  0  0  0  0  0  0
    9.8313   40.7398   31.7557 H   0  0  0  0  0  0  0  0  0  0  0  0
   11.4003   41.5453   31.4742 H   0  0  0  0  0  0  0  0  0  0  0  0
   11.6991   39.5089   30.3487 H   0  0  0  0  0  0  0  0  0  0  0  0
   10.1132   38.2590   32.6664 H   0  0  0  0  0  0  0  0  0  0  0  0
   13.6801   37.4625   31.2265 H   0  0  0  0  0  0  0  0  0  0  0  0
    8.8954   38.6910   30.8891 H   0  0  0  0  0  0  0  0  0  0  0  0
   11.2830   36.3060   32.4929 H   0  0  0  0  0  0  0  0  0  0  0  0
   11.8859   36.9588   29.7593 H   0  0  0  0  0  0  0  0  0  0  0  0
   12.3360   38.3600   34.7441 H   0  0  0  0  0  0  0  0  0  0  0  0
   16.7573   34.1793   32.4621 H   0  0  0  0  0  0  0  0  0  0  0  0
   16.6362   34.5318   37.1416 H   0  0  0  0  0  0  0  0  0  0  0  0
   15.3528   35.7357   37.5140 H   0  0  0  0  0  0  0  0  0  0  0  0
  1  2  2  0
  1  3  1  0
  3  4  1  0
  4  5  1  0
  6  1  1  0
  7  6  1  0
  6  8  1  0
  8  9  1  0
  9 10  1  0
  9 11  2  0
 10 12  1  0
 12 13  1  0
 13 14  2  0
 15 13  1  0
 14 16  1  0
 17 15  2  0
 16 18  2  0
 18 17  1  0
  4 19  2  0
  4 20  1  0
 21 20  1  0
 21 22  1  0
 22 23  1  0
 22 24  1  0
 23 25  1  0
 24 26  1  0
 24 27  1  0
 27 25  1  0
 25 28  1  0
 27 29  1  0
 30 28  1  0
 31 28  1  0
 32 30  2  0
 30 33  1  0
 34 31  2  0
 35 32  1  0
 33 36  2  0
 33 34  1  0
 37 35  2  0
 37 36  1  0
 36 38  1  0
  6 39  1  6
  7 40  1  0
  7 41  1  0
  8 42  1  0
  8 43  1  0
 12 44  1  0
 12 45  1  0
 14 46  1  0
 15 47  1  0
 16 48  1  0
 17 49  1  0
 18 50  1  0
 21 51  1  0
 21 52  1  0
 22 53  1  0
 24 54  1  0
 25 55  1  0
 26 56  1  0
 27 57  1  0
 29 58  1  0
 31 59  1  0
 35 60  1  0
 38 61  1  0
 38 62  1  0
M  CHG  1   5  -1
M  END
>  <EmbedRMS>  (206) 
0.08840535770096869

$$$$

     RDKit          3D

 62 65  0  0  0  0  0  0  0  0999 V2000
   10.2876   43.7688   33.8088 C   0  0  0  0  0  0  0  0  0  0  0  0
   11.4116   43.5793   34.3596 O   0  0  0  0  0  0  0  0  0  0  0  0
    9.3665   42.7304   33.7022 O   0  0  0  0  0  0  0  0  0  0  0  0
    9.8841   41.2327   34.2848 P   0  0  0  0  0  5  0  0  0  0  0  0
   10.3643   41.4680   35.8755 O   0  0  0  0  0  1  0  0  0  0  0  0
    9.9638   45.1116   33.2469 C   0  0  2  0  0  0  0  0  0  0  0  0
   11.0622   46.0541   33.4763 N   0  0  0  0  0  0  0  0  0  0  0  0
    8.6421   45.6682   33.8105 C   0  0  0  0  0  0  0  0  0  0  0  0
    8.6655   45.8207   35.3027 C   0  0  0  0  0  0  0  0  0  0  0  0
    9.1594   47.0005   35.8652 O   0  0  0  0  0  0  0  0  0  0  0  0
    8.2738   44.8723   36.0367 O   0  0  0  0  0  0  0  0  0  0  0  0
    9.2709   47.1934   37.2705 C   0  0  0  0  0  0  0  0  0  0  0  0
    9.8851   48.5360   37.5361 C   0  0  0  0  0  0  0  0  0  0  0  0
    9.0712   49.6613   37.7473 C   0  0  0  0  0  0  0  0  0  0  0  0
   11.2808   48.6905   37.5071 C   0  0  0  0  0  0  0  0  0  0  0  0
    9.6486   50.9179   37.9562 C   0  0  0  0  0  0  0  0  0  0  0  0
   11.8542   49.9488   37.7161 C   0  0  0  0  0  0  0  0  0  0  0  0
   11.0389   51.0611   37.9431 C   0  0  0  0  0  0  0  0  0  0  0  0
    8.8068   40.1900   34.2079 O   0  0  0  0  0  0  0  0  0  0  0  0
   11.2373   40.7900   33.3700 O   0  0  0  0  0  0  0  0  0  0  0  0
   10.9185   40.6904   31.9964 C   0  0  0  0  0  0  0  0  0  0  0  0
   11.5174   39.3824   31.4413 C   0  0  0  0  0  0  0  0  0  0  0  0
   12.7494   39.0893   32.0756 O   0  0  0  0  0  0  0  0  0  0  0  0
   10.6036   38.1899   31.6659 C   0  0  0  0  0  0  0  0  0  0  0  0
   12.9401   37.6834   32.0276 C   0  0  0  0  0  0  0  0  0  0  0  0
    9.6376   38.0785   30.6474 O   0  0  0  0  0  0  0  0  0  0  0  0
   11.5804   37.0204   31.6937 C   0  0  0  0  0  0  0  0  0  0  0  0
   13.4902   37.2177   33.3237 N   0  0  0  0  0  0  0  0  0  0  0  0
   11.6118   36.3193   30.4680 O   0  0  0  0  0  0  0  0  0  0  0  0
   14.4758   36.3271   33.5731 C   0  0  0  0  0  0  0  0  0  0  0  0
   13.1176   37.6317   34.5688 C   0  0  0  0  0  0  0  0  0  0  0  0
   15.2064   35.6141   32.6742 N   0  0  0  0  0  0  0  0  0  0  0  0
   14.6729   36.2274   34.9184 C   0  0  0  0  0  0  0  0  0  0  0  0
   13.8221   37.0458   35.5783 N   0  0  0  0  0  0  0  0  0  0  0  0
   16.1637   34.7597   33.1549 C   0  0  0  0  0  0  0  0  0  0  0  0
   15.6514   35.3493   35.4133 C   0  0  0  0  0  0  0  0  0  0  0  0
   16.3791   34.6312   34.5044 N   0  0  0  0  0  0  0  0  0  0  0  0
   15.9001   35.1935   36.8091 N   0  0  0  0  0  0  0  0  0  0  0  0
    9.8334   44.9915   32.1488 H   0  0  0  0  0  0  0  0  0  0  0  0
   11.3059   46.0954   34.4933 H   0  0  0  0  0  0  0  0  0  0  0  0
   11.9088   45.7284   32.9544 H   0  0  0  0  0  0  0  0  0  0  0  0
    7.8021   44.9989   33.5216 H   0  0  0  0  0  0  0  0  0  0  0  0
    8.4399   46.6599   33.3512 H   0  0  0  0  0  0  0  0  0  0  0  0
    8.2644   47.1272   37.7388 H   0  0  0  0  0  0  0  0  0  0  0  0
    9.9077   46.3941   37.7094 H   0  0  0  0  0  0  0  0  0  0  0  0
    7.9924   49.5661   37.7498 H   0  0  0  0  0  0  0  0  0  0  0  0
   11.9229   47.8381   37.3216 H   0  0  0  0  0  0  0  0  0  0  0  0
    9.0180   51.7814   38.1242 H   0  0  0  0  0  0  0  0  0  0  0  0
   12.9304   50.0622   37.6982 H   0  0  0  0  0  0  0  0  0  0  0  0
   11.4840   52.0346   38.1033 H   0  0  0  0  0  0  0  0  0  0  0  0
   11.3997   41.5455   31.4753 H   0  0  0  0  0  0  0  0  0  0  0  0
    9.8307   40.7397   31.7559 H   0  0  0  0  0  0  0  0  0  0  0  0
   11.6988   39.5093   30.3490 H   0  0  0  0  0  0  0  0  0  0  0  0
   10.1129   38.2587   32.6664 H   0  0  0  0  0  0  0  0  0  0  0  0
   13.6800   37.4628   31.2265 H   0  0  0  0  0  0  0  0  0  0  0  0
    8.8952   38.6907   30.8891 H   0  0  0  0  0  0  0  0  0  0  0  0
   11.2831   36.3060   32.4929 H   0  0  0  0  0  0  0  0  0  0  0  0
   11.8859   36.9590   29.7593 H   0  0  0  0  0  0  0  0  0  0  0  0
   12.3360   38.3600   34.7441 H   0  0  0  0  0  0  0  0  0  0  0  0
   16.7572   34.1793   32.4621 H   0  0  0  0  0  0  0  0  0  0  0  0
   16.6362   34.5318   37.1416 H   0  0  0  0  0  0  0  0  0  0  0  0
   15.3528   35.7357   37.5140 H   0  0  0  0  0  0  0  0  0  0  0  0
  1  2  2  0
  1  3  1  0
  3  4  1  0
  4  5  1  0
  6  1  1  0
  7  6  1  0
  6  8  1  0
  8  9  1  0
  9 10  1  0
  9 11  2  0
 10 12  1  0
 12 13  1  0
 13 14  2  0
 15 13  1  0
 14 16  1  0
 17 15  2  0
 16 18  2  0
 18 17  1  0
  4 19  2  0
  4 20  1  0
 21 20  1  0
 21 22  1  0
 22 23  1  0
 22 24  1  0
 23 25  1  0
 24 26  1  0
 24 27  1  0
 27 25  1  0
 25 28  1  0
 27 29  1  0
 30 28  1  0
 31 28  1  0
 32 30  2  0
 30 33  1  0
 34 31  2  0
 35 32  1  0
 33 36  2  0
 33 34  1  0
 37 35  2  0
 37 36  1  0
 36 38  1  0
  6 39  1  6
  7 40  1  0
  7 41  1  0
  8 42  1  0
  8 43  1  0
 12 44  1  0
 12 45  1  0
 14 46  1  0
 15 47  1  0
 16 48  1  0
 17 49  1  0
 18 50  1  0
 21 51  1  0
 21 52  1  0
 22 53  1  0
 24 54  1  0
 25 55  1  0
 26 56  1  0
 27 57  1  0
 29 58  1  0
 31 59  1  0
 35 60  1  0
 38 61  1  0
 38 62  1  0
M  CHG  1   5  -1
M  END
>  <EmbedRMS>  (207) 
0.08896479393974847

$$$$

     RDKit          3D

 62 65  0  0  0  0  0  0  0  0999 V2000
   10.2875   43.7689   33.8087 C   0  0  0  0  0  0  0  0  0  0  0  0
   11.4116   43.5793   34.3596 O   0  0  0  0  0  0  0  0  0  0  0  0
    9.3665   42.7304   33.7019 O   0  0  0  0  0  0  0  0  0  0  0  0
    9.8844   41.2325   34.2835 P   0  0  0  0  0  5  0  0  0  0  0  0
   10.3657   41.4676   35.8740 O   0  0  0  0  0  1  0  0  0  0  0  0
    9.9638   45.1116   33.2469 C   0  0  2  0  0  0  0  0  0  0  0  0
   11.0622   46.0541   33.4763 N   0  0  0  0  0  0  0  0  0  0  0  0
    8.6422   45.6683   33.8107 C   0  0  0  0  0  0  0  0  0  0  0  0
    8.6658   45.8210   35.3029 C   0  0  0  0  0  0  0  0  0  0  0  0
    9.1594   47.0010   35.8652 O   0  0  0  0  0  0  0  0  0  0  0  0
    8.2745   44.8726   36.0371 O   0  0  0  0  0  0  0  0  0  0  0  0
    9.2704   47.1945   37.2704 C   0  0  0  0  0  0  0  0  0  0  0  0
    9.8838   48.5375   37.5357 C   0  0  0  0  0  0  0  0  0  0  0  0
   11.2797   48.6918   37.5118 C   0  0  0  0  0  0  0  0  0  0  0  0
    9.0693   49.6633   37.7412 C   0  0  0  0  0  0  0  0  0  0  0  0
   11.8524   49.9505   37.7204 C   0  0  0  0  0  0  0  0  0  0  0  0
    9.6459   50.9203   37.9496 C   0  0  0  0  0  0  0  0  0  0  0  0
   11.0363   51.0634   37.9417 C   0  0  0  0  0  0  0  0  0  0  0  0
    8.8065   40.1902   34.2080 O   0  0  0  0  0  0  0  0  0  0  0  0
   11.2363   40.7897   33.3664 O   0  0  0  0  0  0  0  0  0  0  0  0
   10.9140   40.6849   31.9934 C   0  0  0  0  0  0  0  0  0  0  0  0
   11.5165   39.3773   31.4394 C   0  0  0  0  0  0  0  0  0  0  0  0
   12.7471   39.0855   32.0739 O   0  0  0  0  0  0  0  0  0  0  0  0
   10.6047   38.1867   31.6670 C   0  0  0  0  0  0  0  0  0  0  0  0
   12.9345   37.6791   32.0282 C   0  0  0  0  0  0  0  0  0  0  0  0
    9.6378   38.0917   30.6488 O   0  0  0  0  0  0  0  0  0  0  0  0
   11.5761   37.0129   31.7056 C   0  0  0  0  0  0  0  0  0  0  0  0
   13.4909   37.2177   33.3233 N   0  0  0  0  0  0  0  0  0  0  0  0
   11.6234   36.3371   30.4684 O   0  0  0  0  0  0  0  0  0  0  0  0
   14.4765   36.3272   33.5727 C   0  0  0  0  0  0  0  0  0  0  0  0
   13.1182   37.6316   34.5685 C   0  0  0  0  0  0  0  0  0  0  0  0
   15.2066   35.6138   32.6739 N   0  0  0  0  0  0  0  0  0  0  0  0
   14.6735   36.2276   34.9182 C   0  0  0  0  0  0  0  0  0  0  0  0
   13.8227   37.0457   35.5781 N   0  0  0  0  0  0  0  0  0  0  0  0
   16.1638   34.7593   33.1548 C   0  0  0  0  0  0  0  0  0  0  0  0
   15.6517   35.3492   35.4131 C   0  0  0  0  0  0  0  0  0  0  0  0
   16.3792   34.6309   34.5043 N   0  0  0  0  0  0  0  0  0  0  0  0
   15.9002   35.1934   36.8090 N   0  0  0  0  0  0  0  0  0  0  0  0
    9.8332   44.9917   32.1489 H   0  0  0  0  0  0  0  0  0  0  0  0
   11.9088   45.7284   32.9543 H   0  0  0  0  0  0  0  0  0  0  0  0
   11.3060   46.0953   34.4933 H   0  0  0  0  0  0  0  0  0  0  0  0
    8.4398   46.6599   33.3513 H   0  0  0  0  0  0  0  0  0  0  0  0
    7.8022   44.9989   33.5221 H   0  0  0  0  0  0  0  0  0  0  0  0
    9.9072   46.3955   37.7099 H   0  0  0  0  0  0  0  0  0  0  0  0
    8.2637   47.1282   37.7385 H   0  0  0  0  0  0  0  0  0  0  0  0
   11.9225   47.8390   37.3307 H   0  0  0  0  0  0  0  0  0  0  0  0
    7.9904   49.5683   37.7395 H   0  0  0  0  0  0  0  0  0  0  0  0
   12.9287   50.0638   37.7065 H   0  0  0  0  0  0  0  0  0  0  0  0
    9.0148   51.7842   38.1132 H   0  0  0  0  0  0  0  0  0  0  0  0
   11.4809   52.0372   38.1015 H   0  0  0  0  0  0  0  0  0  0  0  0
    9.8241   40.7213   31.7565 H   0  0  0  0  0  0  0  0  0  0  0  0
   11.3873   41.5416   31.4677 H   0  0  0  0  0  0  0  0  0  0  0  0
   11.6985   39.5014   30.3468 H   0  0  0  0  0  0  0  0  0  0  0  0
   10.1095   38.2769   32.6629 H   0  0  0  0  0  0  0  0  0  0  0  0
   13.6672   37.4546   31.2213 H   0  0  0  0  0  0  0  0  0  0  0  0
    8.9780   37.4156   30.9533 H   0  0  0  0  0  0  0  0  0  0  0  0
   11.2861   36.3041   32.5176 H   0  0  0  0  0  0  0  0  0  0  0  0
   10.8690   35.6918   30.4657 H   0  0  0  0  0  0  0  0  0  0  0  0
   12.3355   38.3587   34.7440 H   0  0  0  0  0  0  0  0  0  0  0  0
   16.7572   34.1786   32.4621 H   0  0  0  0  0  0  0  0  0  0  0  0
   16.6361   34.5315   37.1415 H   0  0  0  0  0  0  0  0  0  0  0  0
   15.3530   35.7358   37.5138 H   0  0  0  0  0  0  0  0  0  0  0  0
  1  2  2  0
  1  3  1  0
  3  4  1  0
  4  5  1  0
  6  1  1  0
  7  6  1  0
  6  8  1  0
  8  9  1  0
  9 10  1  0
  9 11  2  0
 10 12  1  0
 12 13  1  0
 13 14  2  0
 15 13  1  0
 14 16  1  0
 17 15  2  0
 16 18  2  0
 18 17  1  0
  4 19  2  0
  4 20  1  0
 21 20  1  0
 21 22  1  0
 22 23  1  0
 22 24  1  0
 23 25  1  0
 24 26  1  0
 24 27  1  0
 27 25  1  0
 25 28  1  0
 27 29  1  0
 30 28  1  0
 31 28  1  0
 32 30  2  0
 30 33  1  0
 34 31  2  0
 35 32  1  0
 33 36  2  0
 33 34  1  0
 37 35  2  0
 37 36  1  0
 36 38  1  0
  6 39  1  6
  7 40  1  0
  7 41  1  0
  8 42  1  0
  8 43  1  0
 12 44  1  0
 12 45  1  0
 14 46  1  0
 15 47  1  0
 16 48  1  0
 17 49  1  0
 18 50  1  0
 21 51  1  0
 21 52  1  0
 22 53  1  0
 24 54  1  0
 25 55  1  0
 26 56  1  0
 27 57  1  0
 29 58  1  0
 31 59  1  0
 35 60  1  0
 38 61  1  0
 38 62  1  0
M  CHG  1   5  -1
M  END
>  <EmbedRMS>  (208) 
0.08965110769264945

$$$$

     RDKit          3D

 62 65  0  0  0  0  0  0  0  0999 V2000
   10.2829   43.7754   33.8081 C   0  0  0  0  0  0  0  0  0  0  0  0
   11.4088   43.5905   34.3575 O   0  0  0  0  0  0  0  0  0  0  0  0
    9.3667   42.7318   33.7014 O   0  0  0  0  0  0  0  0  0  0  0  0
    9.8860   41.2345   34.2842 P   0  0  0  0  0  5  0  0  0  0  0  0
   10.3668   41.4695   35.8746 O   0  0  0  0  0  1  0  0  0  0  0  0
    9.9541   45.1122   33.2431 C   0  0  2  0  0  0  0  0  0  0  0  0
   11.0718   46.0278   33.4847 N   0  0  0  0  0  0  0  0  0  0  0  0
    8.6380   45.6474   33.8492 C   0  0  0  0  0  0  0  0  0  0  0  0
    8.1792   46.9059   33.1550 C   0  0  0  0  0  0  0  0  0  0  0  0
    8.2393   48.1732   33.7506 O   0  0  0  0  0  0  0  0  0  0  0  0
    7.7402   46.8185   31.9779 O   0  0  0  0  0  0  0  0  0  0  0  0
    8.6527   48.4186   35.0909 C   0  0  0  0  0  0  0  0  0  0  0  0
    8.6088   49.8947   35.3562 C   0  0  0  0  0  0  0  0  0  0  0  0
    9.7205   50.7001   35.0582 C   0  0  0  0  0  0  0  0  0  0  0  0
    7.4342   50.4935   35.8411 C   0  0  0  0  0  0  0  0  0  0  0  0
    9.6663   52.0813   35.2709 C   0  0  0  0  0  0  0  0  0  0  0  0
    7.3842   51.8751   36.0525 C   0  0  0  0  0  0  0  0  0  0  0  0
    8.5000   52.6680   35.7700 C   0  0  0  0  0  0  0  0  0  0  0  0
    8.8085   40.1915   34.2086 O   0  0  0  0  0  0  0  0  0  0  0  0
   11.2376   40.7907   33.3679 O   0  0  0  0  0  0  0  0  0  0  0  0
   10.9159   40.6890   31.9949 C   0  0  0  0  0  0  0  0  0  0  0  0
   11.5251   39.3872   31.4365 C   0  0  0  0  0  0  0  0  0  0  0  0
   12.7486   39.0879   32.0804 O   0  0  0  0  0  0  0  0  0  0  0  0
   10.6100   38.1909   31.6470 C   0  0  0  0  0  0  0  0  0  0  0  0
   12.9348   37.6808   32.0292 C   0  0  0  0  0  0  0  0  0  0  0  0
    9.6126   38.0874   30.6547 O   0  0  0  0  0  0  0  0  0  0  0  0
   11.5767   37.0133   31.7026 C   0  0  0  0  0  0  0  0  0  0  0  0
   13.4901   37.2165   33.3236 N   0  0  0  0  0  0  0  0  0  0  0  0
   11.6322   36.3231   30.4741 O   0  0  0  0  0  0  0  0  0  0  0  0
   14.4763   36.3266   33.5727 C   0  0  0  0  0  0  0  0  0  0  0  0
   13.1179   37.6307   34.5689 C   0  0  0  0  0  0  0  0  0  0  0  0
   15.2065   35.6135   32.6738 N   0  0  0  0  0  0  0  0  0  0  0  0
   14.6736   36.2272   34.9182 C   0  0  0  0  0  0  0  0  0  0  0  0
   13.8228   37.0453   35.5783 N   0  0  0  0  0  0  0  0  0  0  0  0
   16.1640   34.7593   33.1547 C   0  0  0  0  0  0  0  0  0  0  0  0
   15.6518   35.3491   35.4131 C   0  0  0  0  0  0  0  0  0  0  0  0
   16.3795   34.6309   34.5042 N   0  0  0  0  0  0  0  0  0  0  0  0
   15.9004   35.1933   36.8089 N   0  0  0  0  0  0  0  0  0  0  0  0
    9.8269   44.9836   32.1452 H   0  0  0  0  0  0  0  0  0  0  0  0
   10.9027   46.9188   32.9640 H   0  0  0  0  0  0  0  0  0  0  0  0
   11.1233   46.2613   34.5034 H   0  0  0  0  0  0  0  0  0  0  0  0
    8.7568   45.7993   34.9414 H   0  0  0  0  0  0  0  0  0  0  0  0
    7.8370   44.8867   33.7217 H   0  0  0  0  0  0  0  0  0  0  0  0
    7.9772   47.8868   35.7960 H   0  0  0  0  0  0  0  0  0  0  0  0
    9.6859   48.0422   35.2452 H   0  0  0  0  0  0  0  0  0  0  0  0
   10.6268   50.2590   34.6616 H   0  0  0  0  0  0  0  0  0  0  0  0
    6.5593   49.8920   36.0547 H   0  0  0  0  0  0  0  0  0  0  0  0
   10.5272   52.6972   35.0451 H   0  0  0  0  0  0  0  0  0  0  0  0
    6.4790   52.3316   36.4316 H   0  0  0  0  0  0  0  0  0  0  0  0
    8.4592   53.7372   35.9328 H   0  0  0  0  0  0  0  0  0  0  0  0
    9.8258   40.7202   31.7580 H   0  0  0  0  0  0  0  0  0  0  0  0
   11.3842   41.5506   31.4727 H   0  0  0  0  0  0  0  0  0  0  0  0
   11.7273   39.5286   30.3502 H   0  0  0  0  0  0  0  0  0  0  0  0
   10.1122   38.2731   32.6390 H   0  0  0  0  0  0  0  0  0  0  0  0
   13.6685   37.4592   31.2224 H   0  0  0  0  0  0  0  0  0  0  0  0
   10.0514   38.1110   29.7648 H   0  0  0  0  0  0  0  0  0  0  0  0
   11.2801   36.3128   32.5195 H   0  0  0  0  0  0  0  0  0  0  0  0
   10.8625   35.6960   30.4645 H   0  0  0  0  0  0  0  0  0  0  0  0
   12.3356   38.3581   34.7445 H   0  0  0  0  0  0  0  0  0  0  0  0
   16.7575   34.1788   32.4619 H   0  0  0  0  0  0  0  0  0  0  0  0
   16.6364   34.5315   37.1415 H   0  0  0  0  0  0  0  0  0  0  0  0
   15.3531   35.7355   37.5138 H   0  0  0  0  0  0  0  0  0  0  0  0
  1  2  2  0
  1  3  1  0
  3  4  1  0
  4  5  1  0
  6  1  1  0
  7  6  1  0
  6  8  1  0
  8  9  1  0
  9 10  1  0
  9 11  2  0
 10 12  1  0
 12 13  1  0
 13 14  2  0
 15 13  1  0
 14 16  1  0
 17 15  2  0
 16 18  2  0
 18 17  1  0
  4 19  2  0
  4 20  1  0
 21 20  1  0
 21 22  1  0
 22 23  1  0
 22 24  1  0
 23 25  1  0
 24 26  1  0
 24 27  1  0
 27 25  1  0
 25 28  1  0
 27 29  1  0
 30 28  1  0
 31 28  1  0
 32 30  2  0
 30 33  1  0
 34 31  2  0
 35 32  1  0
 33 36  2  0
 33 34  1  0
 37 35  2  0
 37 36  1  0
 36 38  1  0
  6 39  1  6
  7 40  1  0
  7 41  1  0
  8 42  1  0
  8 43  1  0
 12 44  1  0
 12 45  1  0
 14 46  1  0
 15 47  1  0
 16 48  1  0
 17 49  1  0
 18 50  1  0
 21 51  1  0
 21 52  1  0
 22 53  1  0
 24 54  1  0
 25 55  1  0
 26 56  1  0
 27 57  1  0
 29 58  1  0
 31 59  1  0
 35 60  1  0
 38 61  1  0
 38 62  1  0
M  CHG  1   5  -1
M  END
>  <EmbedRMS>  (209) 
0.08789534939655992

$$$$

     RDKit          3D

 62 65  0  0  0  0  0  0  0  0999 V2000
   10.2860   43.7720   33.8037 C   0  0  0  0  0  0  0  0  0  0  0  0
   11.4106   43.5876   34.3555 O   0  0  0  0  0  0  0  0  0  0  0  0
    9.3664   42.7314   33.7012 O   0  0  0  0  0  0  0  0  0  0  0  0
    9.8848   41.2344   34.2849 P   0  0  0  0  0  5  0  0  0  0  0  0
   10.3691   41.4689   35.8736 O   0  0  0  0  0  1  0  0  0  0  0  0
    9.9609   45.1098   33.2376 C   0  0  2  0  0  0  0  0  0  0  0  0
   11.0640   46.0386   33.4929 N   0  0  0  0  0  0  0  0  0  0  0  0
    8.6139   45.6556   33.7645 C   0  0  0  0  0  0  0  0  0  0  0  0
    8.5721   45.7770   35.2599 C   0  0  0  0  0  0  0  0  0  0  0  0
    8.4778   44.6200   36.0373 O   0  0  0  0  0  0  0  0  0  0  0  0
    8.6391   46.9139   35.8020 O   0  0  0  0  0  0  0  0  0  0  0  0
    8.4132   44.6424   37.4583 C   0  0  0  0  0  0  0  0  0  0  0  0
    8.4201   43.2319   37.9723 C   0  0  0  0  0  0  0  0  0  0  0  0
    7.3687   42.3613   37.6412 C   0  0  0  0  0  0  0  0  0  0  0  0
    9.4855   42.7582   38.7569 C   0  0  0  0  0  0  0  0  0  0  0  0
    7.3837   41.0364   38.0879 C   0  0  0  0  0  0  0  0  0  0  0  0
    9.4951   41.4330   39.2039 C   0  0  0  0  0  0  0  0  0  0  0  0
    8.4459   40.5727   38.8688 C   0  0  0  0  0  0  0  0  0  0  0  0
    8.8070   40.1918   34.2110 O   0  0  0  0  0  0  0  0  0  0  0  0
   11.2358   40.7907   33.3674 O   0  0  0  0  0  0  0  0  0  0  0  0
   10.9126   40.6859   31.9949 C   0  0  0  0  0  0  0  0  0  0  0  0
   11.5166   39.3798   31.4411 C   0  0  0  0  0  0  0  0  0  0  0  0
   12.7484   39.0888   32.0764 O   0  0  0  0  0  0  0  0  0  0  0  0
   10.6049   38.1876   31.6660 C   0  0  0  0  0  0  0  0  0  0  0  0
   12.9411   37.6830   32.0279 C   0  0  0  0  0  0  0  0  0  0  0  0
    9.6357   38.0929   30.6503 O   0  0  0  0  0  0  0  0  0  0  0  0
   11.5827   37.0180   31.6937 C   0  0  0  0  0  0  0  0  0  0  0  0
   13.4908   37.2178   33.3240 N   0  0  0  0  0  0  0  0  0  0  0  0
   11.6141   36.3181   30.4675 O   0  0  0  0  0  0  0  0  0  0  0  0
   14.4762   36.3271   33.5733 C   0  0  0  0  0  0  0  0  0  0  0  0
   13.1178   37.6317   34.5690 C   0  0  0  0  0  0  0  0  0  0  0  0
   15.2066   35.6141   32.6744 N   0  0  0  0  0  0  0  0  0  0  0  0
   14.6731   36.2273   34.9187 C   0  0  0  0  0  0  0  0  0  0  0  0
   13.8222   37.0456   35.5786 N   0  0  0  0  0  0  0  0  0  0  0  0
   16.1638   34.7595   33.1551 C   0  0  0  0  0  0  0  0  0  0  0  0
   15.6515   35.3492   35.4134 C   0  0  0  0  0  0  0  0  0  0  0  0
   16.3792   34.6310   34.5045 N   0  0  0  0  0  0  0  0  0  0  0  0
   15.9002   35.1933   36.8093 N   0  0  0  0  0  0  0  0  0  0  0  0
    9.8663   44.9820   32.1369 H   0  0  0  0  0  0  0  0  0  0  0  0
   10.8643   46.9384   32.9982 H   0  0  0  0  0  0  0  0  0  0  0  0
   11.1218   46.2528   34.5153 H   0  0  0  0  0  0  0  0  0  0  0  0
    8.4136   46.6474   33.3032 H   0  0  0  0  0  0  0  0  0  0  0  0
    7.7924   44.9795   33.4431 H   0  0  0  0  0  0  0  0  0  0  0  0
    9.2777   45.2144   37.8613 H   0  0  0  0  0  0  0  0  0  0  0  0
    7.4775   45.1479   37.7811 H   0  0  0  0  0  0  0  0  0  0  0  0
    6.5433   42.7075   37.0312 H   0  0  0  0  0  0  0  0  0  0  0  0
   10.3105   43.4096   39.0174 H   0  0  0  0  0  0  0  0  0  0  0  0
    6.5731   40.3686   37.8267 H   0  0  0  0  0  0  0  0  0  0  0  0
   10.3184   41.0718   39.8064 H   0  0  0  0  0  0  0  0  0  0  0  0
    8.4568   39.5465   39.2128 H   0  0  0  0  0  0  0  0  0  0  0  0
    9.8224   40.7204   31.7588 H   0  0  0  0  0  0  0  0  0  0  0  0
   11.3841   41.5435   31.4692 H   0  0  0  0  0  0  0  0  0  0  0  0
   11.6990   39.5068   30.3490 H   0  0  0  0  0  0  0  0  0  0  0  0
   10.1118   38.2721   32.6633 H   0  0  0  0  0  0  0  0  0  0  0  0
   13.6815   37.4636   31.2270 H   0  0  0  0  0  0  0  0  0  0  0  0
    9.0035   37.3827   30.9349 H   0  0  0  0  0  0  0  0  0  0  0  0
   11.2847   36.3041   32.4929 H   0  0  0  0  0  0  0  0  0  0  0  0
   11.8850   36.9591   29.7589 H   0  0  0  0  0  0  0  0  0  0  0  0
   12.3362   38.3600   34.7442 H   0  0  0  0  0  0  0  0  0  0  0  0
   16.7574   34.1791   32.4623 H   0  0  0  0  0  0  0  0  0  0  0  0
   16.6362   34.5317   37.1418 H   0  0  0  0  0  0  0  0  0  0  0  0
   15.3529   35.7355   37.5141 H   0  0  0  0  0  0  0  0  0  0  0  0
  1  2  2  0
  1  3  1  0
  3  4  1  0
  4  5  1  0
  6  1  1  0
  7  6  1  0
  6  8  1  0
  8  9  1  0
  9 10  1  0
  9 11  2  0
 10 12  1  0
 12 13  1  0
 13 14  2  0
 15 13  1  0
 14 16  1  0
 17 15  2  0
 16 18  2  0
 18 17  1  0
  4 19  2  0
  4 20  1  0
 21 20  1  0
 21 22  1  0
 22 23  1  0
 22 24  1  0
 23 25  1  0
 24 26  1  0
 24 27  1  0
 27 25  1  0
 25 28  1  0
 27 29  1  0
 30 28  1  0
 31 28  1  0
 32 30  2  0
 30 33  1  0
 34 31  2  0
 35 32  1  0
 33 36  2  0
 33 34  1  0
 37 35  2  0
 37 36  1  0
 36 38  1  0
  6 39  1  6
  7 40  1  0
  7 41  1  0
  8 42  1  0
  8 43  1  0
 12 44  1  0
 12 45  1  0
 14 46  1  0
 15 47  1  0
 16 48  1  0
 17 49  1  0
 18 50  1  0
 21 51  1  0
 21 52  1  0
 22 53  1  0
 24 54  1  0
 25 55  1  0
 26 56  1  0
 27 57  1  0
 29 58  1  0
 31 59  1  0
 35 60  1  0
 38 61  1  0
 38 62  1  0
M  CHG  1   5  -1
M  END
>  <EmbedRMS>  (210) 
0.08770086136028288

$$$$

     RDKit          3D

 62 65  0  0  0  0  0  0  0  0999 V2000
   10.2828   43.7755   33.8075 C   0  0  0  0  0  0  0  0  0  0  0  0
   11.4085   43.5915   34.3577 O   0  0  0  0  0  0  0  0  0  0  0  0
    9.3667   42.7319   33.7013 O   0  0  0  0  0  0  0  0  0  0  0  0
    9.8860   41.2347   34.2842 P   0  0  0  0  0  5  0  0  0  0  0  0
   10.3669   41.4697   35.8746 O   0  0  0  0  0  1  0  0  0  0  0  0
    9.9533   45.1118   33.2434 C   0  0  2  0  0  0  0  0  0  0  0  0
   11.0727   46.0267   33.4849 N   0  0  0  0  0  0  0  0  0  0  0  0
    8.6395   45.6439   33.8543 C   0  0  0  0  0  0  0  0  0  0  0  0
    8.2270   46.9374   33.2240 C   0  0  0  0  0  0  0  0  0  0  0  0
    8.6088   48.1431   33.8184 O   0  0  0  0  0  0  0  0  0  0  0  0
    7.5763   46.9293   32.1434 O   0  0  0  0  0  0  0  0  0  0  0  0
    8.3029   49.4110   33.2498 C   0  0  0  0  0  0  0  0  0  0  0  0
    8.8872   50.4912   34.1114 C   0  0  0  0  0  0  0  0  0  0  0  0
    8.1207   51.0795   35.1310 C   0  0  0  0  0  0  0  0  0  0  0  0
   10.2289   50.8738   33.9496 C   0  0  0  0  0  0  0  0  0  0  0  0
    8.6819   52.0587   35.9571 C   0  0  0  0  0  0  0  0  0  0  0  0
   10.7863   51.8531   34.7779 C   0  0  0  0  0  0  0  0  0  0  0  0
   10.0127   52.4470   35.7791 C   0  0  0  0  0  0  0  0  0  0  0  0
    8.8086   40.1916   34.2086 O   0  0  0  0  0  0  0  0  0  0  0  0
   11.2377   40.7907   33.3679 O   0  0  0  0  0  0  0  0  0  0  0  0
   10.9159   40.6890   31.9949 C   0  0  0  0  0  0  0  0  0  0  0  0
   11.5252   39.3872   31.4365 C   0  0  0  0  0  0  0  0  0  0  0  0
   12.7486   39.0879   32.0804 O   0  0  0  0  0  0  0  0  0  0  0  0
   10.6100   38.1909   31.6471 C   0  0  0  0  0  0  0  0  0  0  0  0
   12.9348   37.6808   32.0292 C   0  0  0  0  0  0  0  0  0  0  0  0
    9.6126   38.0874   30.6547 O   0  0  0  0  0  0  0  0  0  0  0  0
   11.5767   37.0133   31.7026 C   0  0  0  0  0  0  0  0  0  0  0  0
   13.4901   37.2165   33.3236 N   0  0  0  0  0  0  0  0  0  0  0  0
   11.6321   36.3231   30.4741 O   0  0  0  0  0  0  0  0  0  0  0  0
   14.4763   36.3266   33.5727 C   0  0  0  0  0  0  0  0  0  0  0  0
   13.1179   37.6307   34.5689 C   0  0  0  0  0  0  0  0  0  0  0  0
   15.2065   35.6135   32.6738 N   0  0  0  0  0  0  0  0  0  0  0  0
   14.6736   36.2272   34.9182 C   0  0  0  0  0  0  0  0  0  0  0  0
   13.8228   37.0452   35.5783 N   0  0  0  0  0  0  0  0  0  0  0  0
   16.1640   34.7592   33.1547 C   0  0  0  0  0  0  0  0  0  0  0  0
   15.6519   35.3491   35.4131 C   0  0  0  0  0  0  0  0  0  0  0  0
   16.3795   34.6309   34.5042 N   0  0  0  0  0  0  0  0  0  0  0  0
   15.9005   35.1933   36.8089 N   0  0  0  0  0  0  0  0  0  0  0  0
    9.8203   44.9855   32.1457 H   0  0  0  0  0  0  0  0  0  0  0  0
   11.0744   46.3294   34.4869 H   0  0  0  0  0  0  0  0  0  0  0  0
   10.9466   46.8823   32.8970 H   0  0  0  0  0  0  0  0  0  0  0  0
    8.7573   45.7895   34.9504 H   0  0  0  0  0  0  0  0  0  0  0  0
    7.8245   44.9028   33.7011 H   0  0  0  0  0  0  0  0  0  0  0  0
    7.1999   49.5310   33.1729 H   0  0  0  0  0  0  0  0  0  0  0  0
    8.7279   49.4743   32.2240 H   0  0  0  0  0  0  0  0  0  0  0  0
    7.0914   50.7805   35.2864 H   0  0  0  0  0  0  0  0  0  0  0  0
   10.8418   50.4135   33.1843 H   0  0  0  0  0  0  0  0  0  0  0  0
    8.0861   52.5135   36.7379 H   0  0  0  0  0  0  0  0  0  0  0  0
   11.8192   52.1487   34.6462 H   0  0  0  0  0  0  0  0  0  0  0  0
   10.4459   53.2037   36.4203 H   0  0  0  0  0  0  0  0  0  0  0  0
   11.3842   41.5506   31.4726 H   0  0  0  0  0  0  0  0  0  0  0  0
    9.8258   40.7203   31.7580 H   0  0  0  0  0  0  0  0  0  0  0  0
   11.7273   39.5285   30.3502 H   0  0  0  0  0  0  0  0  0  0  0  0
   10.1122   38.2732   32.6390 H   0  0  0  0  0  0  0  0  0  0  0  0
   13.6685   37.4592   31.2224 H   0  0  0  0  0  0  0  0  0  0  0  0
   10.0514   38.1110   29.7648 H   0  0  0  0  0  0  0  0  0  0  0  0
   11.2801   36.3129   32.5195 H   0  0  0  0  0  0  0  0  0  0  0  0
   10.8625   35.6960   30.4646 H   0  0  0  0  0  0  0  0  0  0  0  0
   12.3356   38.3581   34.7445 H   0  0  0  0  0  0  0  0  0  0  0  0
   16.7575   34.1787   32.4619 H   0  0  0  0  0  0  0  0  0  0  0  0
   16.6364   34.5315   37.1415 H   0  0  0  0  0  0  0  0  0  0  0  0
   15.3531   35.7355   37.5138 H   0  0  0  0  0  0  0  0  0  0  0  0
  1  2  2  0
  1  3  1  0
  3  4  1  0
  4  5  1  0
  6  1  1  0
  7  6  1  0
  6  8  1  0
  8  9  1  0
  9 10  1  0
  9 11  2  0
 10 12  1  0
 12 13  1  0
 13 14  2  0
 15 13  1  0
 14 16  1  0
 17 15  2  0
 16 18  2  0
 18 17  1  0
  4 19  2  0
  4 20  1  0
 21 20  1  0
 21 22  1  0
 22 23  1  0
 22 24  1  0
 23 25  1  0
 24 26  1  0
 24 27  1  0
 27 25  1  0
 25 28  1  0
 27 29  1  0
 30 28  1  0
 31 28  1  0
 32 30  2  0
 30 33  1  0
 34 31  2  0
 35 32  1  0
 33 36  2  0
 33 34  1  0
 37 35  2  0
 37 36  1  0
 36 38  1  0
  6 39  1  6
  7 40  1  0
  7 41  1  0
  8 42  1  0
  8 43  1  0
 12 44  1  0
 12 45  1  0
 14 46  1  0
 15 47  1  0
 16 48  1  0
 17 49  1  0
 18 50  1  0
 21 51  1  0
 21 52  1  0
 22 53  1  0
 24 54  1  0
 25 55  1  0
 26 56  1  0
 27 57  1  0
 29 58  1  0
 31 59  1  0
 35 60  1  0
 38 61  1  0
 38 62  1  0
M  CHG  1   5  -1
M  END
>  <EmbedRMS>  (211) 
0.08785464309795274

$$$$

     RDKit          3D

 62 65  0  0  0  0  0  0  0  0999 V2000
   10.2811   43.7757   33.8109 C   0  0  0  0  0  0  0  0  0  0  0  0
   11.4042   43.5924   34.3665 O   0  0  0  0  0  0  0  0  0  0  0  0
    9.3698   42.7288   33.6989 O   0  0  0  0  0  0  0  0  0  0  0  0
    9.8873   41.2328   34.2825 P   0  0  0  0  0  5  0  0  0  0  0  0
   10.3672   41.4684   35.8732 O   0  0  0  0  0  1  0  0  0  0  0  0
    9.9486   45.1202   33.2530 C   0  0  2  0  0  0  0  0  0  0  0  0
   11.0785   46.0252   33.4703 N   0  0  0  0  0  0  0  0  0  0  0  0
    8.6856   45.7063   33.9236 C   0  0  0  0  0  0  0  0  0  0  0  0
    7.4385   44.9220   33.6308 C   0  0  0  0  0  0  0  0  0  0  0  0
    7.2952   44.2674   32.4038 O   0  0  0  0  0  0  0  0  0  0  0  0
    6.5114   44.8897   34.4852 O   0  0  0  0  0  0  0  0  0  0  0  0
    6.1675   43.4610   32.0859 C   0  0  0  0  0  0  0  0  0  0  0  0
    6.4308   42.7422   30.7962 C   0  0  0  0  0  0  0  0  0  0  0  0
    7.0352   41.4742   30.8040 C   0  0  0  0  0  0  0  0  0  0  0  0
    6.1504   43.3648   29.5690 C   0  0  0  0  0  0  0  0  0  0  0  0
    7.3292   40.8276   29.5997 C   0  0  0  0  0  0  0  0  0  0  0  0
    6.4455   42.7143   28.3666 C   0  0  0  0  0  0  0  0  0  0  0  0
    7.0329   41.4461   28.3820 C   0  0  0  0  0  0  0  0  0  0  0  0
    8.8086   40.1910   34.2070 O   0  0  0  0  0  0  0  0  0  0  0  0
   11.2384   40.7899   33.3652 O   0  0  0  0  0  0  0  0  0  0  0  0
   10.9151   40.6850   31.9925 C   0  0  0  0  0  0  0  0  0  0  0  0
   11.5166   39.3773   31.4387 C   0  0  0  0  0  0  0  0  0  0  0  0
   12.7473   39.0854   32.0732 O   0  0  0  0  0  0  0  0  0  0  0  0
   10.6046   38.1869   31.6670 C   0  0  0  0  0  0  0  0  0  0  0  0
   12.9344   37.6790   32.0281 C   0  0  0  0  0  0  0  0  0  0  0  0
    9.6385   38.0910   30.6487 O   0  0  0  0  0  0  0  0  0  0  0  0
   11.5758   37.0130   31.7059 C   0  0  0  0  0  0  0  0  0  0  0  0
   13.4909   37.2178   33.3233 N   0  0  0  0  0  0  0  0  0  0  0  0
   11.6229   36.3370   30.4687 O   0  0  0  0  0  0  0  0  0  0  0  0
   14.4765   36.3272   33.5727 C   0  0  0  0  0  0  0  0  0  0  0  0
   13.1181   37.6316   34.5685 C   0  0  0  0  0  0  0  0  0  0  0  0
   15.2066   35.6138   32.6739 N   0  0  0  0  0  0  0  0  0  0  0  0
   14.6735   36.2276   34.9181 C   0  0  0  0  0  0  0  0  0  0  0  0
   13.8227   37.0458   35.5781 N   0  0  0  0  0  0  0  0  0  0  0  0
   16.1638   34.7593   33.1547 C   0  0  0  0  0  0  0  0  0  0  0  0
   15.6516   35.3493   35.4131 C   0  0  0  0  0  0  0  0  0  0  0  0
   16.3792   34.6309   34.5043 N   0  0  0  0  0  0  0  0  0  0  0  0
   15.9002   35.1934   36.8089 N   0  0  0  0  0  0  0  0  0  0  0  0
    9.7745   45.0180   32.1578 H   0  0  0  0  0  0  0  0  0  0  0  0
   11.8888   45.6856   32.9010 H   0  0  0  0  0  0  0  0  0  0  0  0
   10.8366   46.9620   33.0721 H   0  0  0  0  0  0  0  0  0  0  0  0
    8.5204   46.7419   33.5566 H   0  0  0  0  0  0  0  0  0  0  0  0
    8.8422   45.7598   35.0239 H   0  0  0  0  0  0  0  0  0  0  0  0
    5.9881   42.7244   32.9002 H   0  0  0  0  0  0  0  0  0  0  0  0
    5.2634   44.1016   31.9951 H   0  0  0  0  0  0  0  0  0  0  0  0
    7.2790   40.9881   31.7405 H   0  0  0  0  0  0  0  0  0  0  0  0
    5.7073   44.3528   29.5439 H   0  0  0  0  0  0  0  0  0  0  0  0
    7.7893   39.8487   29.6098 H   0  0  0  0  0  0  0  0  0  0  0  0
    6.2236   43.1957   27.4230 H   0  0  0  0  0  0  0  0  0  0  0  0
    7.2626   40.9448   27.4506 H   0  0  0  0  0  0  0  0  0  0  0  0
    9.8259   40.7209   31.7561 H   0  0  0  0  0  0  0  0  0  0  0  0
   11.3873   41.5417   31.4660 H   0  0  0  0  0  0  0  0  0  0  0  0
   11.6982   39.5011   30.3460 H   0  0  0  0  0  0  0  0  0  0  0  0
   10.1094   38.2781   32.6629 H   0  0  0  0  0  0  0  0  0  0  0  0
   13.6669   37.4540   31.2211 H   0  0  0  0  0  0  0  0  0  0  0  0
    8.9712   37.4249   30.9587 H   0  0  0  0  0  0  0  0  0  0  0  0
   11.2857   36.3044   32.5180 H   0  0  0  0  0  0  0  0  0  0  0  0
   10.8669   35.6937   30.4653 H   0  0  0  0  0  0  0  0  0  0  0  0
   12.3355   38.3587   34.7438 H   0  0  0  0  0  0  0  0  0  0  0  0
   16.7571   34.1786   32.4621 H   0  0  0  0  0  0  0  0  0  0  0  0
   16.6360   34.5316   37.1415 H   0  0  0  0  0  0  0  0  0  0  0  0
   15.3530   35.7358   37.5138 H   0  0  0  0  0  0  0  0  0  0  0  0
  1  2  2  0
  1  3  1  0
  3  4  1  0
  4  5  1  0
  6  1  1  0
  7  6  1  0
  6  8  1  0
  8  9  1  0
  9 10  1  0
  9 11  2  0
 10 12  1  0
 12 13  1  0
 13 14  2  0
 15 13  1  0
 14 16  1  0
 17 15  2  0
 16 18  2  0
 18 17  1  0
  4 19  2  0
  4 20  1  0
 21 20  1  0
 21 22  1  0
 22 23  1  0
 22 24  1  0
 23 25  1  0
 24 26  1  0
 24 27  1  0
 27 25  1  0
 25 28  1  0
 27 29  1  0
 30 28  1  0
 31 28  1  0
 32 30  2  0
 30 33  1  0
 34 31  2  0
 35 32  1  0
 33 36  2  0
 33 34  1  0
 37 35  2  0
 37 36  1  0
 36 38  1  0
  6 39  1  6
  7 40  1  0
  7 41  1  0
  8 42  1  0
  8 43  1  0
 12 44  1  0
 12 45  1  0
 14 46  1  0
 15 47  1  0
 16 48  1  0
 17 49  1  0
 18 50  1  0
 21 51  1  0
 21 52  1  0
 22 53  1  0
 24 54  1  0
 25 55  1  0
 26 56  1  0
 27 57  1  0
 29 58  1  0
 31 59  1  0
 35 60  1  0
 38 61  1  0
 38 62  1  0
M  CHG  1   5  -1
M  END
>  <EmbedRMS>  (212) 
0.08941555402724004

$$$$

     RDKit          3D

 62 65  0  0  0  0  0  0  0  0999 V2000
   10.2844   43.7742   33.8068 C   0  0  0  0  0  0  0  0  0  0  0  0
   11.4068   43.5902   34.3637 O   0  0  0  0  0  0  0  0  0  0  0  0
    9.3679   42.7310   33.6987 O   0  0  0  0  0  0  0  0  0  0  0  0
    9.8859   41.2341   34.2835 P   0  0  0  0  0  5  0  0  0  0  0  0
   10.3663   41.4697   35.8740 O   0  0  0  0  0  1  0  0  0  0  0  0
    9.9493   45.1163   33.2547 C   0  0  2  0  0  0  0  0  0  0  0  0
   11.0754   46.0282   33.4732 N   0  0  0  0  0  0  0  0  0  0  0  0
    8.6773   45.6528   33.9412 C   0  0  0  0  0  0  0  0  0  0  0  0
    8.1874   46.9084   33.2892 C   0  0  0  0  0  0  0  0  0  0  0  0
    8.4672   48.1454   33.8805 O   0  0  0  0  0  0  0  0  0  0  0  0
    7.5571   46.8419   32.1986 O   0  0  0  0  0  0  0  0  0  0  0  0
    8.1692   49.3935   33.2595 C   0  0  0  0  0  0  0  0  0  0  0  0
    9.1086   49.6395   32.1106 C   0  0  0  0  0  0  0  0  0  0  0  0
    8.6495   49.5816   30.7841 C   0  0  0  0  0  0  0  0  0  0  0  0
   10.4682   49.8886   32.3589 C   0  0  0  0  0  0  0  0  0  0  0  0
    9.5384   49.7801   29.7229 C   0  0  0  0  0  0  0  0  0  0  0  0
   11.3539   50.0856   31.2950 C   0  0  0  0  0  0  0  0  0  0  0  0
   10.8893   50.0323   29.9780 C   0  0  0  0  0  0  0  0  0  0  0  0
    8.8082   40.1914   34.2081 O   0  0  0  0  0  0  0  0  0  0  0  0
   11.2374   40.7899   33.3677 O   0  0  0  0  0  0  0  0  0  0  0  0
   10.9156   40.6881   31.9946 C   0  0  0  0  0  0  0  0  0  0  0  0
   11.5262   39.3870   31.4363 C   0  0  0  0  0  0  0  0  0  0  0  0
   12.7492   39.0892   32.0818 O   0  0  0  0  0  0  0  0  0  0  0  0
   10.6123   38.1893   31.6461 C   0  0  0  0  0  0  0  0  0  0  0  0
   12.9374   37.6826   32.0301 C   0  0  0  0  0  0  0  0  0  0  0  0
    9.6150   38.0838   30.6538 O   0  0  0  0  0  0  0  0  0  0  0  0
   11.5793   37.0136   31.7014 C   0  0  0  0  0  0  0  0  0  0  0  0
   13.4906   37.2169   33.3242 N   0  0  0  0  0  0  0  0  0  0  0  0
   11.6216   36.3252   30.4725 O   0  0  0  0  0  0  0  0  0  0  0  0
   14.4763   36.3266   33.5731 C   0  0  0  0  0  0  0  0  0  0  0  0
   13.1182   37.6308   34.5694 C   0  0  0  0  0  0  0  0  0  0  0  0
   15.2065   35.6137   32.6740 N   0  0  0  0  0  0  0  0  0  0  0  0
   14.6736   36.2270   34.9185 C   0  0  0  0  0  0  0  0  0  0  0  0
   13.8229   37.0451   35.5787 N   0  0  0  0  0  0  0  0  0  0  0  0
   16.1639   34.7593   33.1547 C   0  0  0  0  0  0  0  0  0  0  0  0
   15.6519   35.3489   35.4132 C   0  0  0  0  0  0  0  0  0  0  0  0
   16.3795   34.6308   34.5042 N   0  0  0  0  0  0  0  0  0  0  0  0
   15.9006   35.1931   36.8090 N   0  0  0  0  0  0  0  0  0  0  0  0
    9.7643   45.0047   32.1620 H   0  0  0  0  0  0  0  0  0  0  0  0
   11.8966   45.6756   32.9283 H   0  0  0  0  0  0  0  0  0  0  0  0
   10.8475   46.9536   33.0441 H   0  0  0  0  0  0  0  0  0  0  0  0
    7.8642   44.8959   33.8858 H   0  0  0  0  0  0  0  0  0  0  0  0
    8.8824   45.8497   35.0164 H   0  0  0  0  0  0  0  0  0  0  0  0
    7.1065   49.4121   32.9320 H   0  0  0  0  0  0  0  0  0  0  0  0
    8.2966   50.2026   34.0093 H   0  0  0  0  0  0  0  0  0  0  0  0
    7.6072   49.3795   30.5709 H   0  0  0  0  0  0  0  0  0  0  0  0
   10.8411   49.9238   33.3752 H   0  0  0  0  0  0  0  0  0  0  0  0
    9.1805   49.7353   28.7024 H   0  0  0  0  0  0  0  0  0  0  0  0
   12.4009   50.2766   31.4916 H   0  0  0  0  0  0  0  0  0  0  0  0
   11.5762   50.1840   29.1554 H   0  0  0  0  0  0  0  0  0  0  0  0
   11.3830   41.5502   31.4724 H   0  0  0  0  0  0  0  0  0  0  0  0
    9.8255   40.7180   31.7577 H   0  0  0  0  0  0  0  0  0  0  0  0
   11.7292   39.5285   30.3502 H   0  0  0  0  0  0  0  0  0  0  0  0
   10.1140   38.2719   32.6379 H   0  0  0  0  0  0  0  0  0  0  0  0
   13.6726   37.4635   31.2240 H   0  0  0  0  0  0  0  0  0  0  0  0
   10.0535   38.1084   29.7638 H   0  0  0  0  0  0  0  0  0  0  0  0
   11.2646   36.3134   32.5107 H   0  0  0  0  0  0  0  0  0  0  0  0
   12.1549   35.5031   30.6315 H   0  0  0  0  0  0  0  0  0  0  0  0
   12.3362   38.3586   34.7450 H   0  0  0  0  0  0  0  0  0  0  0  0
   16.7573   34.1788   32.4619 H   0  0  0  0  0  0  0  0  0  0  0  0
   15.3533   35.7353   37.5139 H   0  0  0  0  0  0  0  0  0  0  0  0
   16.6366   34.5314   37.1415 H   0  0  0  0  0  0  0  0  0  0  0  0
  1  2  2  0
  1  3  1  0
  3  4  1  0
  4  5  1  0
  6  1  1  0
  7  6  1  0
  6  8  1  0
  8  9  1  0
  9 10  1  0
  9 11  2  0
 10 12  1  0
 12 13  1  0
 13 14  2  0
 15 13  1  0
 14 16  1  0
 17 15  2  0
 16 18  2  0
 18 17  1  0
  4 19  2  0
  4 20  1  0
 21 20  1  0
 21 22  1  0
 22 23  1  0
 22 24  1  0
 23 25  1  0
 24 26  1  0
 24 27  1  0
 27 25  1  0
 25 28  1  0
 27 29  1  0
 30 28  1  0
 31 28  1  0
 32 30  2  0
 30 33  1  0
 34 31  2  0
 35 32  1  0
 33 36  2  0
 33 34  1  0
 37 35  2  0
 37 36  1  0
 36 38  1  0
  6 39  1  6
  7 40  1  0
  7 41  1  0
  8 42  1  0
  8 43  1  0
 12 44  1  0
 12 45  1  0
 14 46  1  0
 15 47  1  0
 16 48  1  0
 17 49  1  0
 18 50  1  0
 21 51  1  0
 21 52  1  0
 22 53  1  0
 24 54  1  0
 25 55  1  0
 26 56  1  0
 27 57  1  0
 29 58  1  0
 31 59  1  0
 35 60  1  0
 38 61  1  0
 38 62  1  0
M  CHG  1   5  -1
M  END
>  <EmbedRMS>  (213) 
0.08800070013426932

$$$$

     RDKit          3D

 62 65  0  0  0  0  0  0  0  0999 V2000
   10.2840   43.7717   33.8119 C   0  0  0  0  0  0  0  0  0  0  0  0
   11.4080   43.5828   34.3635 O   0  0  0  0  0  0  0  0  0  0  0  0
    9.3690   42.7285   33.6995 O   0  0  0  0  0  0  0  0  0  0  0  0
    9.8859   41.2319   34.2836 P   0  0  0  0  0  5  0  0  0  0  0  0
   10.3651   41.4678   35.8745 O   0  0  0  0  0  1  0  0  0  0  0  0
    9.9578   45.1174   33.2506 C   0  0  2  0  0  0  0  0  0  0  0  0
   11.0691   46.0452   33.4704 N   0  0  0  0  0  0  0  0  0  0  0  0
    8.6789   45.7015   33.8796 C   0  0  0  0  0  0  0  0  0  0  0  0
    7.4511   44.9503   33.4620 C   0  0  0  0  0  0  0  0  0  0  0  0
    7.0529   44.9737   32.1206 O   0  0  0  0  0  0  0  0  0  0  0  0
    6.7983   44.2918   34.3172 O   0  0  0  0  0  0  0  0  0  0  0  0
    5.9061   44.2812   31.6328 C   0  0  0  0  0  0  0  0  0  0  0  0
    4.6457   44.9569   32.0995 C   0  0  0  0  0  0  0  0  0  0  0  0
    4.3217   46.2388   31.6264 C   0  0  0  0  0  0  0  0  0  0  0  0
    3.7970   44.3294   33.0268 C   0  0  0  0  0  0  0  0  0  0  0  0
    3.1607   46.8803   32.0693 C   0  0  0  0  0  0  0  0  0  0  0  0
    2.6369   44.9744   33.4673 C   0  0  0  0  0  0  0  0  0  0  0  0
    2.3186   46.2483   32.9886 C   0  0  0  0  0  0  0  0  0  0  0  0
    8.8077   40.1899   34.2070 O   0  0  0  0  0  0  0  0  0  0  0  0
   11.2387   40.7888   33.3687 O   0  0  0  0  0  0  0  0  0  0  0  0
   10.9198   40.6893   31.9948 C   0  0  0  0  0  0  0  0  0  0  0  0
   11.5172   39.3800   31.4394 C   0  0  0  0  0  0  0  0  0  0  0  0
   12.7480   39.0860   32.0730 O   0  0  0  0  0  0  0  0  0  0  0  0
   10.6031   38.1891   31.6665 C   0  0  0  0  0  0  0  0  0  0  0  0
   12.9335   37.6795   32.0278 C   0  0  0  0  0  0  0  0  0  0  0  0
    9.6396   38.0777   30.6456 O   0  0  0  0  0  0  0  0  0  0  0  0
   11.5739   37.0153   31.7057 C   0  0  0  0  0  0  0  0  0  0  0  0
   13.4903   37.2178   33.3230 N   0  0  0  0  0  0  0  0  0  0  0  0
   11.6210   36.3375   30.4695 O   0  0  0  0  0  0  0  0  0  0  0  0
   14.4761   36.3273   33.5724 C   0  0  0  0  0  0  0  0  0  0  0  0
   13.1178   37.6316   34.5683 C   0  0  0  0  0  0  0  0  0  0  0  0
   15.2063   35.6139   32.6737 N   0  0  0  0  0  0  0  0  0  0  0  0
   14.6733   36.2277   34.9179 C   0  0  0  0  0  0  0  0  0  0  0  0
   13.8225   37.0459   35.5779 N   0  0  0  0  0  0  0  0  0  0  0  0
   16.1636   34.7594   33.1546 C   0  0  0  0  0  0  0  0  0  0  0  0
   15.6515   35.3494   35.4129 C   0  0  0  0  0  0  0  0  0  0  0  0
   16.3791   34.6311   34.5041 N   0  0  0  0  0  0  0  0  0  0  0  0
   15.9001   35.1935   36.8088 N   0  0  0  0  0  0  0  0  0  0  0  0
    9.8065   45.0110   32.1535 H   0  0  0  0  0  0  0  0  0  0  0  0
   11.9212   45.6932   32.9748 H   0  0  0  0  0  0  0  0  0  0  0  0
   11.2845   46.1166   34.4926 H   0  0  0  0  0  0  0  0  0  0  0  0
    8.7673   45.7047   34.9889 H   0  0  0  0  0  0  0  0  0  0  0  0
    8.5595   46.7566   33.5509 H   0  0  0  0  0  0  0  0  0  0  0  0
    5.9303   44.2928   30.5227 H   0  0  0  0  0  0  0  0  0  0  0  0
    5.9433   43.2162   31.9517 H   0  0  0  0  0  0  0  0  0  0  0  0
    4.9690   46.7399   30.9172 H   0  0  0  0  0  0  0  0  0  0  0  0
    4.0330   43.3445   33.4102 H   0  0  0  0  0  0  0  0  0  0  0  0
    2.9147   47.8679   31.7012 H   0  0  0  0  0  0  0  0  0  0  0  0
    1.9855   44.4871   34.1813 H   0  0  0  0  0  0  0  0  0  0  0  0
    1.4208   46.7463   33.3311 H   0  0  0  0  0  0  0  0  0  0  0  0
    9.8320   40.7400   31.7544 H   0  0  0  0  0  0  0  0  0  0  0  0
   11.4019   41.5436   31.4735 H   0  0  0  0  0  0  0  0  0  0  0  0
   11.6982   39.5043   30.3468 H   0  0  0  0  0  0  0  0  0  0  0  0
   10.1090   38.2632   32.6648 H   0  0  0  0  0  0  0  0  0  0  0  0
   13.6655   37.4538   31.2206 H   0  0  0  0  0  0  0  0  0  0  0  0
    8.8967   38.6905   30.8849 H   0  0  0  0  0  0  0  0  0  0  0  0
   11.2845   36.3060   32.5175 H   0  0  0  0  0  0  0  0  0  0  0  0
   10.8522   35.7094   30.4590 H   0  0  0  0  0  0  0  0  0  0  0  0
   12.3352   38.3587   34.7439 H   0  0  0  0  0  0  0  0  0  0  0  0
   16.7570   34.1788   32.4619 H   0  0  0  0  0  0  0  0  0  0  0  0
   16.6360   34.5317   37.1413 H   0  0  0  0  0  0  0  0  0  0  0  0
   15.3529   35.7359   37.5136 H   0  0  0  0  0  0  0  0  0  0  0  0
  1  2  2  0
  1  3  1  0
  3  4  1  0
  4  5  1  0
  6  1  1  0
  7  6  1  0
  6  8  1  0
  8  9  1  0
  9 10  1  0
  9 11  2  0
 10 12  1  0
 12 13  1  0
 13 14  2  0
 15 13  1  0
 14 16  1  0
 17 15  2  0
 16 18  2  0
 18 17  1  0
  4 19  2  0
  4 20  1  0
 21 20  1  0
 21 22  1  0
 22 23  1  0
 22 24  1  0
 23 25  1  0
 24 26  1  0
 24 27  1  0
 27 25  1  0
 25 28  1  0
 27 29  1  0
 30 28  1  0
 31 28  1  0
 32 30  2  0
 30 33  1  0
 34 31  2  0
 35 32  1  0
 33 36  2  0
 33 34  1  0
 37 35  2  0
 37 36  1  0
 36 38  1  0
  6 39  1  6
  7 40  1  0
  7 41  1  0
  8 42  1  0
  8 43  1  0
 12 44  1  0
 12 45  1  0
 14 46  1  0
 15 47  1  0
 16 48  1  0
 17 49  1  0
 18 50  1  0
 21 51  1  0
 21 52  1  0
 22 53  1  0
 24 54  1  0
 25 55  1  0
 26 56  1  0
 27 57  1  0
 29 58  1  0
 31 59  1  0
 35 60  1  0
 38 61  1  0
 38 62  1  0
M  CHG  1   5  -1
M  END
>  <EmbedRMS>  (214) 
0.0901707875979992

$$$$

     RDKit          3D

 62 65  0  0  0  0  0  0  0  0999 V2000
   10.2843   43.7743   33.8068 C   0  0  0  0  0  0  0  0  0  0  0  0
   11.4068   43.5903   34.3636 O   0  0  0  0  0  0  0  0  0  0  0  0
    9.3681   42.7310   33.6985 O   0  0  0  0  0  0  0  0  0  0  0  0
    9.8863   41.2339   34.2826 P   0  0  0  0  0  5  0  0  0  0  0  0
   10.3670   41.4693   35.8732 O   0  0  0  0  0  1  0  0  0  0  0  0
    9.9490   45.1165   33.2549 C   0  0  2  0  0  0  0  0  0  0  0  0
   11.0756   46.0281   33.4731 N   0  0  0  0  0  0  0  0  0  0  0  0
    8.6781   45.6535   33.9428 C   0  0  0  0  0  0  0  0  0  0  0  0
    8.1795   46.9031   33.2853 C   0  0  0  0  0  0  0  0  0  0  0  0
    8.5050   48.1462   33.8348 O   0  0  0  0  0  0  0  0  0  0  0  0
    7.5009   46.8255   32.2248 O   0  0  0  0  0  0  0  0  0  0  0  0
    8.1066   49.3765   33.2411 C   0  0  0  0  0  0  0  0  0  0  0  0
    8.6446   50.5147   34.0570 C   0  0  0  0  0  0  0  0  0  0  0  0
    9.9485   50.9878   33.8352 C   0  0  0  0  0  0  0  0  0  0  0  0
    7.8768   51.0704   35.0938 C   0  0  0  0  0  0  0  0  0  0  0  0
   10.4648   52.0229   34.6211 C   0  0  0  0  0  0  0  0  0  0  0  0
    8.3969   52.1056   35.8774 C   0  0  0  0  0  0  0  0  0  0  0  0
    9.6888   52.5831   35.6397 C   0  0  0  0  0  0  0  0  0  0  0  0
    8.8084   40.1914   34.2077 O   0  0  0  0  0  0  0  0  0  0  0  0
   11.2377   40.7903   33.3657 O   0  0  0  0  0  0  0  0  0  0  0  0
   10.9147   40.6849   31.9929 C   0  0  0  0  0  0  0  0  0  0  0  0
   11.5168   39.3772   31.4392 C   0  0  0  0  0  0  0  0  0  0  0  0
   12.7473   39.0853   32.0738 O   0  0  0  0  0  0  0  0  0  0  0  0
   10.6048   38.1867   31.6669 C   0  0  0  0  0  0  0  0  0  0  0  0
   12.9346   37.6790   32.0282 C   0  0  0  0  0  0  0  0  0  0  0  0
    9.6378   38.0917   30.6489 O   0  0  0  0  0  0  0  0  0  0  0  0
   11.5761   37.0128   31.7056 C   0  0  0  0  0  0  0  0  0  0  0  0
   13.4909   37.2177   33.3233 N   0  0  0  0  0  0  0  0  0  0  0  0
   11.6234   36.3371   30.4684 O   0  0  0  0  0  0  0  0  0  0  0  0
   14.4765   36.3271   33.5727 C   0  0  0  0  0  0  0  0  0  0  0  0
   13.1182   37.6315   34.5685 C   0  0  0  0  0  0  0  0  0  0  0  0
   15.2066   35.6137   32.6739 N   0  0  0  0  0  0  0  0  0  0  0  0
   14.6736   36.2276   34.9182 C   0  0  0  0  0  0  0  0  0  0  0  0
   13.8227   37.0457   35.5781 N   0  0  0  0  0  0  0  0  0  0  0  0
   16.1638   34.7592   33.1548 C   0  0  0  0  0  0  0  0  0  0  0  0
   15.6517   35.3492   35.4131 C   0  0  0  0  0  0  0  0  0  0  0  0
   16.3793   34.6309   34.5043 N   0  0  0  0  0  0  0  0  0  0  0  0
   15.9002   35.1934   36.8090 N   0  0  0  0  0  0  0  0  0  0  0  0
    9.7630   45.0051   32.1624 H   0  0  0  0  0  0  0  0  0  0  0  0
   10.8474   46.9547   33.0463 H   0  0  0  0  0  0  0  0  0  0  0  0
   11.8961   45.6757   32.9269 H   0  0  0  0  0  0  0  0  0  0  0  0
    8.8869   45.8586   35.0158 H   0  0  0  0  0  0  0  0  0  0  0  0
    7.8677   44.8930   33.8971 H   0  0  0  0  0  0  0  0  0  0  0  0
    6.9967   49.4270   33.1921 H   0  0  0  0  0  0  0  0  0  0  0  0
    8.4994   49.4361   32.2023 H   0  0  0  0  0  0  0  0  0  0  0  0
   10.5637   50.5548   33.0559 H   0  0  0  0  0  0  0  0  0  0  0  0
    6.8782   50.7028   35.2952 H   0  0  0  0  0  0  0  0  0  0  0  0
   11.4681   52.3880   34.4431 H   0  0  0  0  0  0  0  0  0  0  0  0
    7.7998   52.5348   36.6716 H   0  0  0  0  0  0  0  0  0  0  0  0
   10.0904   53.3832   36.2480 H   0  0  0  0  0  0  0  0  0  0  0  0
    9.8247   40.7213   31.7562 H   0  0  0  0  0  0  0  0  0  0  0  0
   11.3878   41.5414   31.4666 H   0  0  0  0  0  0  0  0  0  0  0  0
   11.6988   39.5011   30.3465 H   0  0  0  0  0  0  0  0  0  0  0  0
   10.1097   38.2772   32.6629 H   0  0  0  0  0  0  0  0  0  0  0  0
   13.6673   37.4543   31.2213 H   0  0  0  0  0  0  0  0  0  0  0  0
    8.9779   37.4157   30.9534 H   0  0  0  0  0  0  0  0  0  0  0  0
   11.2860   36.3041   32.5177 H   0  0  0  0  0  0  0  0  0  0  0  0
   10.8689   35.6918   30.4657 H   0  0  0  0  0  0  0  0  0  0  0  0
   12.3356   38.3586   34.7439 H   0  0  0  0  0  0  0  0  0  0  0  0
   16.7572   34.1786   32.4621 H   0  0  0  0  0  0  0  0  0  0  0  0
   15.3530   35.7358   37.5138 H   0  0  0  0  0  0  0  0  0  0  0  0
   16.6361   34.5315   37.1416 H   0  0  0  0  0  0  0  0  0  0  0  0
  1  2  2  0
  1  3  1  0
  3  4  1  0
  4  5  1  0
  6  1  1  0
  7  6  1  0
  6  8  1  0
  8  9  1  0
  9 10  1  0
  9 11  2  0
 10 12  1  0
 12 13  1  0
 13 14  2  0
 15 13  1  0
 14 16  1  0
 17 15  2  0
 16 18  2  0
 18 17  1  0
  4 19  2  0
  4 20  1  0
 21 20  1  0
 21 22  1  0
 22 23  1  0
 22 24  1  0
 23 25  1  0
 24 26  1  0
 24 27  1  0
 27 25  1  0
 25 28  1  0
 27 29  1  0
 30 28  1  0
 31 28  1  0
 32 30  2  0
 30 33  1  0
 34 31  2  0
 35 32  1  0
 33 36  2  0
 33 34  1  0
 37 35  2  0
 37 36  1  0
 36 38  1  0
  6 39  1  6
  7 40  1  0
  7 41  1  0
  8 42  1  0
  8 43  1  0
 12 44  1  0
 12 45  1  0
 14 46  1  0
 15 47  1  0
 16 48  1  0
 17 49  1  0
 18 50  1  0
 21 51  1  0
 21 52  1  0
 22 53  1  0
 24 54  1  0
 25 55  1  0
 26 56  1  0
 27 57  1  0
 29 58  1  0
 31 59  1  0
 35 60  1  0
 38 61  1  0
 38 62  1  0
M  CHG  1   5  -1
M  END
>  <EmbedRMS>  (215) 
0.08910234405461587

$$$$

     RDKit          3D

 62 65  0  0  0  0  0  0  0  0999 V2000
   10.2865   43.7710   33.8017 C   0  0  0  0  0  0  0  0  0  0  0  0
   11.4091   43.5868   34.3579 O   0  0  0  0  0  0  0  0  0  0  0  0
    9.3669   42.7309   33.6986 O   0  0  0  0  0  0  0  0  0  0  0  0
    9.8849   41.2346   34.2847 P   0  0  0  0  0  5  0  0  0  0  0  0
   10.3654   41.4710   35.8749 O   0  0  0  0  0  1  0  0  0  0  0  0
    9.9516   45.1163   33.2556 C   0  0  2  0  0  0  0  0  0  0  0  0
   11.0720   46.0323   33.4788 N   0  0  0  0  0  0  0  0  0  0  0  0
    8.6615   45.6676   33.8996 C   0  0  0  0  0  0  0  0  0  0  0  0
    8.7694   45.7515   35.3931 C   0  0  0  0  0  0  0  0  0  0  0  0
    9.5777   46.7359   35.9710 O   0  0  0  0  0  0  0  0  0  0  0  0
    8.1766   44.9013   36.1121 O   0  0  0  0  0  0  0  0  0  0  0  0
    9.9943   46.6964   37.3333 C   0  0  0  0  0  0  0  0  0  0  0  0
   10.9801   45.5777   37.5349 C   0  0  0  0  0  0  0  0  0  0  0  0
   10.6160   44.4202   38.2429 C   0  0  0  0  0  0  0  0  0  0  0  0
   12.2572   45.6580   36.9562 C   0  0  0  0  0  0  0  0  0  0  0  0
   11.5229   43.3644   38.3789 C   0  0  0  0  0  0  0  0  0  0  0  0
   13.1606   44.5996   37.0936 C   0  0  0  0  0  0  0  0  0  0  0  0
   12.7937   43.4535   37.8042 C   0  0  0  0  0  0  0  0  0  0  0  0
    8.8077   40.1914   34.2093 O   0  0  0  0  0  0  0  0  0  0  0  0
   11.2368   40.7903   33.3694 O   0  0  0  0  0  0  0  0  0  0  0  0
   10.9156   40.6898   31.9963 C   0  0  0  0  0  0  0  0  0  0  0  0
   11.5270   39.3899   31.4376 C   0  0  0  0  0  0  0  0  0  0  0  0
   12.7508   39.0917   32.0839 O   0  0  0  0  0  0  0  0  0  0  0  0
   10.6122   38.1916   31.6453 C   0  0  0  0  0  0  0  0  0  0  0  0
   12.9429   37.6853   32.0296 C   0  0  0  0  0  0  0  0  0  0  0  0
    9.6070   38.0859   30.6603 O   0  0  0  0  0  0  0  0  0  0  0  0
   11.5845   37.0187   31.6880 C   0  0  0  0  0  0  0  0  0  0  0  0
   13.4899   37.2164   33.3250 N   0  0  0  0  0  0  0  0  0  0  0  0
   11.6201   36.3063   30.4693 O   0  0  0  0  0  0  0  0  0  0  0  0
   14.4758   36.3264   33.5739 C   0  0  0  0  0  0  0  0  0  0  0  0
   13.1176   37.6309   34.5700 C   0  0  0  0  0  0  0  0  0  0  0  0
   15.2065   35.6139   32.6746 N   0  0  0  0  0  0  0  0  0  0  0  0
   14.6731   36.2268   34.9191 C   0  0  0  0  0  0  0  0  0  0  0  0
   13.8225   37.0451   35.5793 N   0  0  0  0  0  0  0  0  0  0  0  0
   16.1640   34.7596   33.1551 C   0  0  0  0  0  0  0  0  0  0  0  0
   15.6517   35.3489   35.4136 C   0  0  0  0  0  0  0  0  0  0  0  0
   16.3795   34.6310   34.5046 N   0  0  0  0  0  0  0  0  0  0  0  0
   15.9006   35.1931   36.8094 N   0  0  0  0  0  0  0  0  0  0  0  0
    9.7783   45.0127   32.1608 H   0  0  0  0  0  0  0  0  0  0  0  0
   11.8841   45.7086   32.9032 H   0  0  0  0  0  0  0  0  0  0  0  0
   10.8146   46.9709   33.0954 H   0  0  0  0  0  0  0  0  0  0  0  0
    7.8019   45.0181   33.6226 H   0  0  0  0  0  0  0  0  0  0  0  0
    8.4455   46.6804   33.4969 H   0  0  0  0  0  0  0  0  0  0  0  0
   10.4838   47.6610   37.5843 H   0  0  0  0  0  0  0  0  0  0  0  0
    9.1104   46.5897   37.9999 H   0  0  0  0  0  0  0  0  0  0  0  0
    9.6303   44.3312   38.6823 H   0  0  0  0  0  0  0  0  0  0  0  0
   12.5475   46.5352   36.3912 H   0  0  0  0  0  0  0  0  0  0  0  0
   11.2377   42.4738   38.9238 H   0  0  0  0  0  0  0  0  0  0  0  0
   14.1426   44.6652   36.6434 H   0  0  0  0  0  0  0  0  0  0  0  0
   13.4923   42.6332   37.9061 H   0  0  0  0  0  0  0  0  0  0  0  0
    9.8255   40.7192   31.7590 H   0  0  0  0  0  0  0  0  0  0  0  0
   11.3827   41.5528   31.4752 H   0  0  0  0  0  0  0  0  0  0  0  0
   11.7318   39.5341   30.3522 H   0  0  0  0  0  0  0  0  0  0  0  0
   10.1214   38.2682   32.6413 H   0  0  0  0  0  0  0  0  0  0  0  0
   13.6882   37.4709   31.2320 H   0  0  0  0  0  0  0  0  0  0  0  0
   10.0257   38.1753   29.7657 H   0  0  0  0  0  0  0  0  0  0  0  0
   11.2796   36.3124   32.4916 H   0  0  0  0  0  0  0  0  0  0  0  0
   11.9872   36.9100   29.7715 H   0  0  0  0  0  0  0  0  0  0  0  0
   12.3367   38.3599   34.7454 H   0  0  0  0  0  0  0  0  0  0  0  0
   16.7576   34.1794   32.4622 H   0  0  0  0  0  0  0  0  0  0  0  0
   15.3533   35.7352   37.5144 H   0  0  0  0  0  0  0  0  0  0  0  0
   16.6368   34.5316   37.1418 H   0  0  0  0  0  0  0  0  0  0  0  0
  1  2  2  0
  1  3  1  0
  3  4  1  0
  4  5  1  0
  6  1  1  0
  7  6  1  0
  6  8  1  0
  8  9  1  0
  9 10  1  0
  9 11  2  0
 10 12  1  0
 12 13  1  0
 13 14  2  0
 15 13  1  0
 14 16  1  0
 17 15  2  0
 16 18  2  0
 18 17  1  0
  4 19  2  0
  4 20  1  0
 21 20  1  0
 21 22  1  0
 22 23  1  0
 22 24  1  0
 23 25  1  0
 24 26  1  0
 24 27  1  0
 27 25  1  0
 25 28  1  0
 27 29  1  0
 30 28  1  0
 31 28  1  0
 32 30  2  0
 30 33  1  0
 34 31  2  0
 35 32  1  0
 33 36  2  0
 33 34  1  0
 37 35  2  0
 37 36  1  0
 36 38  1  0
  6 39  1  6
  7 40  1  0
  7 41  1  0
  8 42  1  0
  8 43  1  0
 12 44  1  0
 12 45  1  0
 14 46  1  0
 15 47  1  0
 16 48  1  0
 17 49  1  0
 18 50  1  0
 21 51  1  0
 21 52  1  0
 22 53  1  0
 24 54  1  0
 25 55  1  0
 26 56  1  0
 27 57  1  0
 29 58  1  0
 31 59  1  0
 35 60  1  0
 38 61  1  0
 38 62  1  0
M  CHG  1   5  -1
M  END
>  <EmbedRMS>  (216) 
0.08689642267733266

$$$$

     RDKit          3D

 62 65  0  0  0  0  0  0  0  0999 V2000
   10.2800   43.7745   33.8045 C   0  0  0  0  0  0  0  0  0  0  0  0
   11.4044   43.5902   34.3577 O   0  0  0  0  0  0  0  0  0  0  0  0
    9.3638   42.7307   33.7004 O   0  0  0  0  0  0  0  0  0  0  0  0
    9.8871   41.2347   34.2843 P   0  0  0  0  0  5  0  0  0  0  0  0
   10.3699   41.4722   35.8736 O   0  0  0  0  0  1  0  0  0  0  0  0
    9.9653   45.1090   33.2214 C   0  0  2  0  0  0  0  0  0  0  0  0
   11.0681   46.0292   33.5043 N   0  0  0  0  0  0  0  0  0  0  0  0
    8.6297   45.6681   33.7630 C   0  0  0  0  0  0  0  0  0  0  0  0
    7.4561   45.1050   33.0209 C   0  0  0  0  0  0  0  0  0  0  0  0
    6.6752   44.1023   33.6074 O   0  0  0  0  0  0  0  0  0  0  0  0
    7.1870   45.5396   31.8680 O   0  0  0  0  0  0  0  0  0  0  0  0
    5.5851   43.4691   32.9392 C   0  0  0  0  0  0  0  0  0  0  0  0
    6.0926   42.4200   31.9875 C   0  0  0  0  0  0  0  0  0  0  0  0
    6.3895   41.1305   32.4567 C   0  0  0  0  0  0  0  0  0  0  0  0
    6.3171   42.7279   30.6352 C   0  0  0  0  0  0  0  0  0  0  0  0
    6.8952   40.1613   31.5846 C   0  0  0  0  0  0  0  0  0  0  0  0
    6.8280   41.7576   29.7672 C   0  0  0  0  0  0  0  0  0  0  0  0
    7.1167   40.4754   30.2414 C   0  0  0  0  0  0  0  0  0  0  0  0
    8.8151   40.1866   34.2154 O   0  0  0  0  0  0  0  0  0  0  0  0
   11.2379   40.7927   33.3655 O   0  0  0  0  0  0  0  0  0  0  0  0
   10.9132   40.6859   31.9931 C   0  0  0  0  0  0  0  0  0  0  0  0
   11.5154   39.3779   31.4395 C   0  0  0  0  0  0  0  0  0  0  0  0
   12.7462   39.0859   32.0740 O   0  0  0  0  0  0  0  0  0  0  0  0
   10.6036   38.1873   31.6666 C   0  0  0  0  0  0  0  0  0  0  0  0
   12.9338   37.6795   32.0283 C   0  0  0  0  0  0  0  0  0  0  0  0
    9.6386   38.0915   30.6472 O   0  0  0  0  0  0  0  0  0  0  0  0
   11.5752   37.0135   31.7060 C   0  0  0  0  0  0  0  0  0  0  0  0
   13.4906   37.2180   33.3233 N   0  0  0  0  0  0  0  0  0  0  0  0
   11.6228   36.3370   30.4691 O   0  0  0  0  0  0  0  0  0  0  0  0
   14.4763   36.3274   33.5726 C   0  0  0  0  0  0  0  0  0  0  0  0
   13.1180   37.6317   34.5686 C   0  0  0  0  0  0  0  0  0  0  0  0
   15.2064   35.6139   32.6738 N   0  0  0  0  0  0  0  0  0  0  0  0
   14.6734   36.2277   34.9181 C   0  0  0  0  0  0  0  0  0  0  0  0
   13.8226   37.0458   35.5781 N   0  0  0  0  0  0  0  0  0  0  0  0
   16.1636   34.7594   33.1546 C   0  0  0  0  0  0  0  0  0  0  0  0
   15.6516   35.3493   35.4130 C   0  0  0  0  0  0  0  0  0  0  0  0
   16.3791   34.6310   34.5041 N   0  0  0  0  0  0  0  0  0  0  0  0
   15.9002   35.1935   36.8089 N   0  0  0  0  0  0  0  0  0  0  0  0
    9.8997   44.9856   32.1168 H   0  0  0  0  0  0  0  0  0  0  0  0
   10.9252   46.9038   32.9481 H   0  0  0  0  0  0  0  0  0  0  0  0
   11.0474   46.2977   34.5161 H   0  0  0  0  0  0  0  0  0  0  0  0
    8.5289   45.4560   34.8502 H   0  0  0  0  0  0  0  0  0  0  0  0
    8.6073   46.7732   33.6424 H   0  0  0  0  0  0  0  0  0  0  0  0
    4.9333   42.9918   33.7016 H   0  0  0  0  0  0  0  0  0  0  0  0
    4.9620   44.2234   32.4102 H   0  0  0  0  0  0  0  0  0  0  0  0
    6.2296   40.8770   33.4973 H   0  0  0  0  0  0  0  0  0  0  0  0
    6.0952   43.7153   30.2514 H   0  0  0  0  0  0  0  0  0  0  0  0
    7.1222   39.1691   31.9523 H   0  0  0  0  0  0  0  0  0  0  0  0
    6.9998   42.0000   28.7265 H   0  0  0  0  0  0  0  0  0  0  0  0
    7.5121   39.7260   29.5682 H   0  0  0  0  0  0  0  0  0  0  0  0
   11.3848   41.5422   31.4656 H   0  0  0  0  0  0  0  0  0  0  0  0
    9.8236   40.7227   31.7579 H   0  0  0  0  0  0  0  0  0  0  0  0
   11.6974   39.5021   30.3469 H   0  0  0  0  0  0  0  0  0  0  0  0
   10.1067   38.2782   32.6617 H   0  0  0  0  0  0  0  0  0  0  0  0
   13.6662   37.4551   31.2211 H   0  0  0  0  0  0  0  0  0  0  0  0
    8.9745   37.4205   30.9535 H   0  0  0  0  0  0  0  0  0  0  0  0
   11.2850   36.3051   32.5183 H   0  0  0  0  0  0  0  0  0  0  0  0
   10.8673   35.6931   30.4659 H   0  0  0  0  0  0  0  0  0  0  0  0
   12.3353   38.3587   34.7441 H   0  0  0  0  0  0  0  0  0  0  0  0
   16.7570   34.1787   32.4619 H   0  0  0  0  0  0  0  0  0  0  0  0
   15.3529   35.7358   37.5137 H   0  0  0  0  0  0  0  0  0  0  0  0
   16.6360   34.5316   37.1414 H   0  0  0  0  0  0  0  0  0  0  0  0
  1  2  2  0
  1  3  1  0
  3  4  1  0
  4  5  1  0
  6  1  1  0
  7  6  1  0
  6  8  1  0
  8  9  1  0
  9 10  1  0
  9 11  2  0
 10 12  1  0
 12 13  1  0
 13 14  2  0
 15 13  1  0
 14 16  1  0
 17 15  2  0
 16 18  2  0
 18 17  1  0
  4 19  2  0
  4 20  1  0
 21 20  1  0
 21 22  1  0
 22 23  1  0
 22 24  1  0
 23 25  1  0
 24 26  1  0
 24 27  1  0
 27 25  1  0
 25 28  1  0
 27 29  1  0
 30 28  1  0
 31 28  1  0
 32 30  2  0
 30 33  1  0
 34 31  2  0
 35 32  1  0
 33 36  2  0
 33 34  1  0
 37 35  2  0
 37 36  1  0
 36 38  1  0
  6 39  1  6
  7 40  1  0
  7 41  1  0
  8 42  1  0
  8 43  1  0
 12 44  1  0
 12 45  1  0
 14 46  1  0
 15 47  1  0
 16 48  1  0
 17 49  1  0
 18 50  1  0
 21 51  1  0
 21 52  1  0
 22 53  1  0
 24 54  1  0
 25 55  1  0
 26 56  1  0
 27 57  1  0
 29 58  1  0
 31 59  1  0
 35 60  1  0
 38 61  1  0
 38 62  1  0
M  CHG  1   5  -1
M  END
>  <EmbedRMS>  (217) 
0.08809506458530413

$$$$

     RDKit          3D

 62 65  0  0  0  0  0  0  0  0999 V2000
   10.2825   43.7720   33.8127 C   0  0  0  0  0  0  0  0  0  0  0  0
   11.4067   43.5829   34.3639 O   0  0  0  0  0  0  0  0  0  0  0  0
    9.3674   42.7287   33.7006 O   0  0  0  0  0  0  0  0  0  0  0  0
    9.8857   41.2320   34.2839 P   0  0  0  0  0  5  0  0  0  0  0  0
   10.3646   41.4672   35.8749 O   0  0  0  0  0  1  0  0  0  0  0  0
    9.9578   45.1174   33.2492 C   0  0  2  0  0  0  0  0  0  0  0  0
   11.0694   46.0448   33.4698 N   0  0  0  0  0  0  0  0  0  0  0  0
    8.6785   45.7052   33.8741 C   0  0  0  0  0  0  0  0  0  0  0  0
    7.4469   44.9698   33.4410 C   0  0  0  0  0  0  0  0  0  0  0  0
    6.8033   44.1175   34.3436 O   0  0  0  0  0  0  0  0  0  0  0  0
    7.0117   45.1118   32.2640 O   0  0  0  0  0  0  0  0  0  0  0  0
    5.6522   43.3566   33.9949 C   0  0  0  0  0  0  0  0  0  0  0  0
    5.1939   42.5818   35.1958 C   0  0  0  0  0  0  0  0  0  0  0  0
    4.4318   43.2152   36.1911 C   0  0  0  0  0  0  0  0  0  0  0  0
    5.5828   41.2443   35.3731 C   0  0  0  0  0  0  0  0  0  0  0  0
    4.0474   42.5123   37.3376 C   0  0  0  0  0  0  0  0  0  0  0  0
    5.1975   40.5445   36.5214 C   0  0  0  0  0  0  0  0  0  0  0  0
    4.4308   41.1785   37.5034 C   0  0  0  0  0  0  0  0  0  0  0  0
    8.8103   40.1876   34.2061 O   0  0  0  0  0  0  0  0  0  0  0  0
   11.2383   40.7911   33.3676 O   0  0  0  0  0  0  0  0  0  0  0  0
   10.9159   40.6892   31.9947 C   0  0  0  0  0  0  0  0  0  0  0  0
   11.5259   39.3878   31.4357 C   0  0  0  0  0  0  0  0  0  0  0  0
   12.7492   39.0881   32.0795 O   0  0  0  0  0  0  0  0  0  0  0  0
   10.6108   38.1920   31.6474 C   0  0  0  0  0  0  0  0  0  0  0  0
   12.9347   37.6807   32.0287 C   0  0  0  0  0  0  0  0  0  0  0  0
    9.6114   38.0887   30.6571 O   0  0  0  0  0  0  0  0  0  0  0  0
   11.5764   37.0138   31.7024 C   0  0  0  0  0  0  0  0  0  0  0  0
   13.4902   37.2162   33.3233 N   0  0  0  0  0  0  0  0  0  0  0  0
   11.6311   36.3234   30.4740 O   0  0  0  0  0  0  0  0  0  0  0  0
   14.4762   36.3261   33.5727 C   0  0  0  0  0  0  0  0  0  0  0  0
   13.1180   37.6305   34.5686 C   0  0  0  0  0  0  0  0  0  0  0  0
   15.2064   35.6128   32.6740 N   0  0  0  0  0  0  0  0  0  0  0  0
   14.6737   36.2270   34.9184 C   0  0  0  0  0  0  0  0  0  0  0  0
   13.8230   37.0454   35.5782 N   0  0  0  0  0  0  0  0  0  0  0  0
   16.1638   34.7585   33.1550 C   0  0  0  0  0  0  0  0  0  0  0  0
   15.6520   35.3489   35.4135 C   0  0  0  0  0  0  0  0  0  0  0  0
   16.3793   34.6304   34.5045 N   0  0  0  0  0  0  0  0  0  0  0  0
   15.9012   35.1926   36.8094 N   0  0  0  0  0  0  0  0  0  0  0  0
    9.8082   45.0090   32.1520 H   0  0  0  0  0  0  0  0  0  0  0  0
   11.2827   46.1174   34.4923 H   0  0  0  0  0  0  0  0  0  0  0  0
   11.9224   45.6928   32.9759 H   0  0  0  0  0  0  0  0  0  0  0  0
    8.5742   46.7683   33.5650 H   0  0  0  0  0  0  0  0  0  0  0  0
    8.7529   45.6870   34.9836 H   0  0  0  0  0  0  0  0  0  0  0  0
    4.8403   44.0371   33.6543 H   0  0  0  0  0  0  0  0  0  0  0  0
    5.8994   42.6669   33.1569 H   0  0  0  0  0  0  0  0  0  0  0  0
    4.1410   44.2538   36.0810 H   0  0  0  0  0  0  0  0  0  0  0  0
    6.1828   40.7453   34.6251 H   0  0  0  0  0  0  0  0  0  0  0  0
    3.4584   43.0040   38.1006 H   0  0  0  0  0  0  0  0  0  0  0  0
    5.4976   39.5118   36.6520 H   0  0  0  0  0  0  0  0  0  0  0  0
    4.1378   40.6378   38.3941 H   0  0  0  0  0  0  0  0  0  0  0  0
   11.3817   41.5517   31.4717 H   0  0  0  0  0  0  0  0  0  0  0  0
    9.8255   40.7190   31.7590 H   0  0  0  0  0  0  0  0  0  0  0  0
   11.7279   39.5290   30.3492 H   0  0  0  0  0  0  0  0  0  0  0  0
   10.1160   38.2760   32.6407 H   0  0  0  0  0  0  0  0  0  0  0  0
   13.6670   37.4581   31.2207 H   0  0  0  0  0  0  0  0  0  0  0  0
   10.0483   38.1132   29.7664 H   0  0  0  0  0  0  0  0  0  0  0  0
   11.2790   36.3138   32.5195 H   0  0  0  0  0  0  0  0  0  0  0  0
   10.8616   35.6960   30.4650 H   0  0  0  0  0  0  0  0  0  0  0  0
   12.3359   38.3580   34.7443 H   0  0  0  0  0  0  0  0  0  0  0  0
   16.7570   34.1772   32.4627 H   0  0  0  0  0  0  0  0  0  0  0  0
   15.3543   35.7336   37.5154 H   0  0  0  0  0  0  0  0  0  0  0  0
   16.6370   34.5302   37.1412 H   0  0  0  0  0  0  0  0  0  0  0  0
  1  2  2  0
  1  3  1  0
  3  4  1  0
  4  5  1  0
  6  1  1  0
  7  6  1  0
  6  8  1  0
  8  9  1  0
  9 10  1  0
  9 11  2  0
 10 12  1  0
 12 13  1  0
 13 14  2  0
 15 13  1  0
 14 16  1  0
 17 15  2  0
 16 18  2  0
 18 17  1  0
  4 19  2  0
  4 20  1  0
 21 20  1  0
 21 22  1  0
 22 23  1  0
 22 24  1  0
 23 25  1  0
 24 26  1  0
 24 27  1  0
 27 25  1  0
 25 28  1  0
 27 29  1  0
 30 28  1  0
 31 28  1  0
 32 30  2  0
 30 33  1  0
 34 31  2  0
 35 32  1  0
 33 36  2  0
 33 34  1  0
 37 35  2  0
 37 36  1  0
 36 38  1  0
  6 39  1  6
  7 40  1  0
  7 41  1  0
  8 42  1  0
  8 43  1  0
 12 44  1  0
 12 45  1  0
 14 46  1  0
 15 47  1  0
 16 48  1  0
 17 49  1  0
 18 50  1  0
 21 51  1  0
 21 52  1  0
 22 53  1  0
 24 54  1  0
 25 55  1  0
 26 56  1  0
 27 57  1  0
 29 58  1  0
 31 59  1  0
 35 60  1  0
 38 61  1  0
 38 62  1  0
M  CHG  1   5  -1
M  END
>  <EmbedRMS>  (218) 
0.08863346837855955

$$$$

     RDKit          3D

 62 65  0  0  0  0  0  0  0  0999 V2000
   10.2876   43.7689   33.8086 C   0  0  0  0  0  0  0  0  0  0  0  0
   11.4116   43.5793   34.3595 O   0  0  0  0  0  0  0  0  0  0  0  0
    9.3664   42.7306   33.7022 O   0  0  0  0  0  0  0  0  0  0  0  0
    9.8837   41.2330   34.2850 P   0  0  0  0  0  5  0  0  0  0  0  0
   10.3646   41.4682   35.8754 O   0  0  0  0  0  1  0  0  0  0  0  0
    9.9637   45.1118   33.2472 C   0  0  2  0  0  0  0  0  0  0  0  0
   11.0621   46.0541   33.4762 N   0  0  0  0  0  0  0  0  0  0  0  0
    8.6429   45.6686   33.8123 C   0  0  0  0  0  0  0  0  0  0  0  0
    8.6707   45.8321   35.3032 C   0  0  0  0  0  0  0  0  0  0  0  0
    9.0947   47.0463   35.8547 O   0  0  0  0  0  0  0  0  0  0  0  0
    8.3447   44.8655   36.0453 O   0  0  0  0  0  0  0  0  0  0  0  0
    9.1554   47.2893   37.2583 C   0  0  0  0  0  0  0  0  0  0  0  0
    7.7698   47.4195   37.8295 C   0  0  0  0  0  0  0  0  0  0  0  0
    7.2554   46.4382   38.6935 C   0  0  0  0  0  0  0  0  0  0  0  0
    6.9674   48.5170   37.4779 C   0  0  0  0  0  0  0  0  0  0  0  0
    5.9590   46.5597   39.2037 C   0  0  0  0  0  0  0  0  0  0  0  0
    5.6716   48.6349   37.9904 C   0  0  0  0  0  0  0  0  0  0  0  0
    5.1680   47.6574   38.8531 C   0  0  0  0  0  0  0  0  0  0  0  0
    8.8063   40.1902   34.2086 O   0  0  0  0  0  0  0  0  0  0  0  0
   11.2359   40.7898   33.3693 O   0  0  0  0  0  0  0  0  0  0  0  0
   10.9151   40.6897   31.9962 C   0  0  0  0  0  0  0  0  0  0  0  0
   11.5268   39.3898   31.4375 C   0  0  0  0  0  0  0  0  0  0  0  0
   12.7506   39.0917   32.0839 O   0  0  0  0  0  0  0  0  0  0  0  0
   10.6121   38.1915   31.6452 C   0  0  0  0  0  0  0  0  0  0  0  0
   12.9429   37.6853   32.0295 C   0  0  0  0  0  0  0  0  0  0  0  0
    9.6069   38.0858   30.6602 O   0  0  0  0  0  0  0  0  0  0  0  0
   11.5845   37.0186   31.6879 C   0  0  0  0  0  0  0  0  0  0  0  0
   13.4899   37.2163   33.3250 N   0  0  0  0  0  0  0  0  0  0  0  0
   11.6202   36.3063   30.4693 O   0  0  0  0  0  0  0  0  0  0  0  0
   14.4759   36.3263   33.5738 C   0  0  0  0  0  0  0  0  0  0  0  0
   13.1175   37.6307   34.5699 C   0  0  0  0  0  0  0  0  0  0  0  0
   15.2065   35.6139   32.6746 N   0  0  0  0  0  0  0  0  0  0  0  0
   14.6731   36.2267   34.9191 C   0  0  0  0  0  0  0  0  0  0  0  0
   13.8224   37.0450   35.5792 N   0  0  0  0  0  0  0  0  0  0  0  0
   16.1640   34.7596   33.1551 C   0  0  0  0  0  0  0  0  0  0  0  0
   15.6517   35.3489   35.4136 C   0  0  0  0  0  0  0  0  0  0  0  0
   16.3795   34.6310   34.5046 N   0  0  0  0  0  0  0  0  0  0  0  0
   15.9006   35.1931   36.8094 N   0  0  0  0  0  0  0  0  0  0  0  0
    9.8324   44.9919   32.1492 H   0  0  0  0  0  0  0  0  0  0  0  0
   11.9099   45.7265   32.9572 H   0  0  0  0  0  0  0  0  0  0  0  0
   11.3026   46.0981   34.4938 H   0  0  0  0  0  0  0  0  0  0  0  0
    8.4357   46.6560   33.3460 H   0  0  0  0  0  0  0  0  0  0  0  0
    7.8034   44.9950   33.5325 H   0  0  0  0  0  0  0  0  0  0  0  0
    9.7062   48.2380   37.4306 H   0  0  0  0  0  0  0  0  0  0  0  0
    9.7308   46.4793   37.7582 H   0  0  0  0  0  0  0  0  0  0  0  0
    7.8547   45.5796   38.9701 H   0  0  0  0  0  0  0  0  0  0  0  0
    7.3454   49.2782   36.8065 H   0  0  0  0  0  0  0  0  0  0  0  0
    5.5669   45.8019   39.8696 H   0  0  0  0  0  0  0  0  0  0  0  0
    5.0573   49.4832   37.7173 H   0  0  0  0  0  0  0  0  0  0  0  0
    4.1646   47.7496   39.2484 H   0  0  0  0  0  0  0  0  0  0  0  0
   11.3823   41.5527   31.4753 H   0  0  0  0  0  0  0  0  0  0  0  0
    9.8251   40.7191   31.7586 H   0  0  0  0  0  0  0  0  0  0  0  0
   11.7317   39.5340   30.3521 H   0  0  0  0  0  0  0  0  0  0  0  0
   10.1214   38.2681   32.6413 H   0  0  0  0  0  0  0  0  0  0  0  0
   13.6882   37.4709   31.2319 H   0  0  0  0  0  0  0  0  0  0  0  0
   10.0257   38.1750   29.7656 H   0  0  0  0  0  0  0  0  0  0  0  0
   11.2796   36.3123   32.4915 H   0  0  0  0  0  0  0  0  0  0  0  0
   11.9872   36.9099   29.7714 H   0  0  0  0  0  0  0  0  0  0  0  0
   12.3365   38.3596   34.7453 H   0  0  0  0  0  0  0  0  0  0  0  0
   16.7577   34.1795   32.4622 H   0  0  0  0  0  0  0  0  0  0  0  0
   15.3532   35.7351   37.5143 H   0  0  0  0  0  0  0  0  0  0  0  0
   16.6368   34.5316   37.1418 H   0  0  0  0  0  0  0  0  0  0  0  0
  1  2  2  0
  1  3  1  0
  3  4  1  0
  4  5  1  0
  6  1  1  0
  7  6  1  0
  6  8  1  0
  8  9  1  0
  9 10  1  0
  9 11  2  0
 10 12  1  0
 12 13  1  0
 13 14  2  0
 15 13  1  0
 14 16  1  0
 17 15  2  0
 16 18  2  0
 18 17  1  0
  4 19  2  0
  4 20  1  0
 21 20  1  0
 21 22  1  0
 22 23  1  0
 22 24  1  0
 23 25  1  0
 24 26  1  0
 24 27  1  0
 27 25  1  0
 25 28  1  0
 27 29  1  0
 30 28  1  0
 31 28  1  0
 32 30  2  0
 30 33  1  0
 34 31  2  0
 35 32  1  0
 33 36  2  0
 33 34  1  0
 37 35  2  0
 37 36  1  0
 36 38  1  0
  6 39  1  6
  7 40  1  0
  7 41  1  0
  8 42  1  0
  8 43  1  0
 12 44  1  0
 12 45  1  0
 14 46  1  0
 15 47  1  0
 16 48  1  0
 17 49  1  0
 18 50  1  0
 21 51  1  0
 21 52  1  0
 22 53  1  0
 24 54  1  0
 25 55  1  0
 26 56  1  0
 27 57  1  0
 29 58  1  0
 31 59  1  0
 35 60  1  0
 38 61  1  0
 38 62  1  0
M  CHG  1   5  -1
M  END
>  <EmbedRMS>  (219) 
0.08765782112105552

$$$$

     RDKit          3D

 62 65  0  0  0  0  0  0  0  0999 V2000
   10.2850   43.7725   33.8067 C   0  0  0  0  0  0  0  0  0  0  0  0
   11.4105   43.5874   34.3563 O   0  0  0  0  0  0  0  0  0  0  0  0
    9.3667   42.7311   33.7012 O   0  0  0  0  0  0  0  0  0  0  0  0
    9.8856   41.2339   34.2841 P   0  0  0  0  0  5  0  0  0  0  0  0
   10.3657   41.4695   35.8747 O   0  0  0  0  0  1  0  0  0  0  0  0
    9.9582   45.1106   33.2438 C   0  0  2  0  0  0  0  0  0  0  0  0
   11.0674   46.0366   33.4848 N   0  0  0  0  0  0  0  0  0  0  0  0
    8.6198   45.6578   33.7898 C   0  0  0  0  0  0  0  0  0  0  0  0
    8.6112   45.8091   35.2824 C   0  0  0  0  0  0  0  0  0  0  0  0
    8.9572   47.0398   35.8515 O   0  0  0  0  0  0  0  0  0  0  0  0
    8.3209   44.8208   36.0105 O   0  0  0  0  0  0  0  0  0  0  0  0
    8.9744   47.2742   37.2578 C   0  0  0  0  0  0  0  0  0  0  0  0
    7.5717   47.3258   37.7991 C   0  0  0  0  0  0  0  0  0  0  0  0
    6.7199   48.3823   37.4384 C   0  0  0  0  0  0  0  0  0  0  0  0
    7.0915   46.3106   38.6435 C   0  0  0  0  0  0  0  0  0  0  0  0
    5.4088   48.4267   37.9227 C   0  0  0  0  0  0  0  0  0  0  0  0
    5.7795   46.3586   39.1255 C   0  0  0  0  0  0  0  0  0  0  0  0
    4.9391   47.4160   38.7661 C   0  0  0  0  0  0  0  0  0  0  0  0
    8.8082   40.1910   34.2080 O   0  0  0  0  0  0  0  0  0  0  0  0
   11.2384   40.7904   33.3687 O   0  0  0  0  0  0  0  0  0  0  0  0
   10.9193   40.6895   31.9950 C   0  0  0  0  0  0  0  0  0  0  0  0
   11.5170   39.3801   31.4398 C   0  0  0  0  0  0  0  0  0  0  0  0
   12.7478   39.0862   32.0734 O   0  0  0  0  0  0  0  0  0  0  0  0
   10.6031   38.1891   31.6667 C   0  0  0  0  0  0  0  0  0  0  0  0
   12.9335   37.6797   32.0280 C   0  0  0  0  0  0  0  0  0  0  0  0
    9.6397   38.0777   30.6456 O   0  0  0  0  0  0  0  0  0  0  0  0
   11.5739   37.0154   31.7057 C   0  0  0  0  0  0  0  0  0  0  0  0
   13.4903   37.2178   33.3231 N   0  0  0  0  0  0  0  0  0  0  0  0
   11.6211   36.3376   30.4695 O   0  0  0  0  0  0  0  0  0  0  0  0
   14.4761   36.3273   33.5725 C   0  0  0  0  0  0  0  0  0  0  0  0
   13.1179   37.6316   34.5684 C   0  0  0  0  0  0  0  0  0  0  0  0
   15.2063   35.6139   32.6737 N   0  0  0  0  0  0  0  0  0  0  0  0
   14.6733   36.2277   34.9180 C   0  0  0  0  0  0  0  0  0  0  0  0
   13.8225   37.0459   35.5779 N   0  0  0  0  0  0  0  0  0  0  0  0
   16.1636   34.7594   33.1546 C   0  0  0  0  0  0  0  0  0  0  0  0
   15.6515   35.3494   35.4129 C   0  0  0  0  0  0  0  0  0  0  0  0
   16.3791   34.6311   34.5041 N   0  0  0  0  0  0  0  0  0  0  0  0
   15.9001   35.1935   36.8088 N   0  0  0  0  0  0  0  0  0  0  0  0
    9.8486   44.9836   32.1445 H   0  0  0  0  0  0  0  0  0  0  0  0
   10.8536   46.9454   33.0131 H   0  0  0  0  0  0  0  0  0  0  0  0
   11.1594   46.2308   34.5085 H   0  0  0  0  0  0  0  0  0  0  0  0
    7.7916   44.9796   33.4884 H   0  0  0  0  0  0  0  0  0  0  0  0
    8.4106   46.6456   33.3255 H   0  0  0  0  0  0  0  0  0  0  0  0
    9.4698   48.2495   37.4488 H   0  0  0  0  0  0  0  0  0  0  0  0
    9.5813   46.4920   37.7646 H   0  0  0  0  0  0  0  0  0  0  0  0
    7.0715   49.1686   36.7817 H   0  0  0  0  0  0  0  0  0  0  0  0
    7.7293   45.4825   38.9265 H   0  0  0  0  0  0  0  0  0  0  0  0
    4.7563   49.2436   37.6427 H   0  0  0  0  0  0  0  0  0  0  0  0
    5.4138   45.5749   39.7763 H   0  0  0  0  0  0  0  0  0  0  0  0
    3.9238   47.4511   39.1395 H   0  0  0  0  0  0  0  0  0  0  0  0
    9.8314   40.7396   31.7550 H   0  0  0  0  0  0  0  0  0  0  0  0
   11.4009   41.5437   31.4729 H   0  0  0  0  0  0  0  0  0  0  0  0
   11.6982   39.5043   30.3471 H   0  0  0  0  0  0  0  0  0  0  0  0
   10.1089   38.2631   32.6650 H   0  0  0  0  0  0  0  0  0  0  0  0
   13.6656   37.4541   31.2207 H   0  0  0  0  0  0  0  0  0  0  0  0
    8.8965   38.6899   30.8852 H   0  0  0  0  0  0  0  0  0  0  0  0
   11.2846   36.3060   32.5175 H   0  0  0  0  0  0  0  0  0  0  0  0
   10.8523   35.7095   30.4590 H   0  0  0  0  0  0  0  0  0  0  0  0
   12.3353   38.3588   34.7440 H   0  0  0  0  0  0  0  0  0  0  0  0
   16.7570   34.1788   32.4619 H   0  0  0  0  0  0  0  0  0  0  0  0
   15.3529   35.7359   37.5136 H   0  0  0  0  0  0  0  0  0  0  0  0
   16.6360   34.5317   37.1413 H   0  0  0  0  0  0  0  0  0  0  0  0
  1  2  2  0
  1  3  1  0
  3  4  1  0
  4  5  1  0
  6  1  1  0
  7  6  1  0
  6  8  1  0
  8  9  1  0
  9 10  1  0
  9 11  2  0
 10 12  1  0
 12 13  1  0
 13 14  2  0
 15 13  1  0
 14 16  1  0
 17 15  2  0
 16 18  2  0
 18 17  1  0
  4 19  2  0
  4 20  1  0
 21 20  1  0
 21 22  1  0
 22 23  1  0
 22 24  1  0
 23 25  1  0
 24 26  1  0
 24 27  1  0
 27 25  1  0
 25 28  1  0
 27 29  1  0
 30 28  1  0
 31 28  1  0
 32 30  2  0
 30 33  1  0
 34 31  2  0
 35 32  1  0
 33 36  2  0
 33 34  1  0
 37 35  2  0
 37 36  1  0
 36 38  1  0
  6 39  1  6
  7 40  1  0
  7 41  1  0
  8 42  1  0
  8 43  1  0
 12 44  1  0
 12 45  1  0
 14 46  1  0
 15 47  1  0
 16 48  1  0
 17 49  1  0
 18 50  1  0
 21 51  1  0
 21 52  1  0
 22 53  1  0
 24 54  1  0
 25 55  1  0
 26 56  1  0
 27 57  1  0
 29 58  1  0
 31 59  1  0
 35 60  1  0
 38 61  1  0
 38 62  1  0
M  CHG  1   5  -1
M  END
>  <EmbedRMS>  (220) 
0.08932842310267602

$$$$

     RDKit          3D

 62 65  0  0  0  0  0  0  0  0999 V2000
   10.2877   43.7688   33.8086 C   0  0  0  0  0  0  0  0  0  0  0  0
   11.4116   43.5792   34.3595 O   0  0  0  0  0  0  0  0  0  0  0  0
    9.3666   42.7304   33.7019 O   0  0  0  0  0  0  0  0  0  0  0  0
    9.8840   41.2327   34.2844 P   0  0  0  0  0  5  0  0  0  0  0  0
   10.3649   41.4680   35.8749 O   0  0  0  0  0  1  0  0  0  0  0  0
    9.9638   45.1117   33.2471 C   0  0  2  0  0  0  0  0  0  0  0  0
   11.0621   46.0541   33.4764 N   0  0  0  0  0  0  0  0  0  0  0  0
    8.6427   45.6684   33.8118 C   0  0  0  0  0  0  0  0  0  0  0  0
    8.6698   45.8310   35.3028 C   0  0  0  0  0  0  0  0  0  0  0  0
    9.0943   47.0447   35.8552 O   0  0  0  0  0  0  0  0  0  0  0  0
    8.3427   44.8643   36.0442 O   0  0  0  0  0  0  0  0  0  0  0  0
    9.1537   47.2871   37.2590 C   0  0  0  0  0  0  0  0  0  0  0  0
    7.7676   47.4190   37.8286 C   0  0  0  0  0  0  0  0  0  0  0  0
    6.9676   48.5185   37.4777 C   0  0  0  0  0  0  0  0  0  0  0  0
    7.2503   46.4371   38.6903 C   0  0  0  0  0  0  0  0  0  0  0  0
    5.6714   48.6379   37.9887 C   0  0  0  0  0  0  0  0  0  0  0  0
    5.9533   46.5602   39.1989 C   0  0  0  0  0  0  0  0  0  0  0  0
    5.1648   47.6599   38.8491 C   0  0  0  0  0  0  0  0  0  0  0  0
    8.8063   40.1902   34.2084 O   0  0  0  0  0  0  0  0  0  0  0  0
   11.2360   40.7893   33.3684 O   0  0  0  0  0  0  0  0  0  0  0  0
   10.9149   40.6881   31.9952 C   0  0  0  0  0  0  0  0  0  0  0  0
   11.5259   39.3871   31.4366 C   0  0  0  0  0  0  0  0  0  0  0  0
   12.7490   39.0894   32.0820 O   0  0  0  0  0  0  0  0  0  0  0  0
   10.6122   38.1892   31.6461 C   0  0  0  0  0  0  0  0  0  0  0  0
   12.9373   37.6828   32.0301 C   0  0  0  0  0  0  0  0  0  0  0  0
    9.6150   38.0838   30.6538 O   0  0  0  0  0  0  0  0  0  0  0  0
   11.5793   37.0136   31.7014 C   0  0  0  0  0  0  0  0  0  0  0  0
   13.4906   37.2170   33.3242 N   0  0  0  0  0  0  0  0  0  0  0  0
   11.6217   36.3252   30.4725 O   0  0  0  0  0  0  0  0  0  0  0  0
   14.4763   36.3266   33.5731 C   0  0  0  0  0  0  0  0  0  0  0  0
   13.1181   37.6308   34.5694 C   0  0  0  0  0  0  0  0  0  0  0  0
   15.2065   35.6137   32.6740 N   0  0  0  0  0  0  0  0  0  0  0  0
   14.6735   36.2270   34.9185 C   0  0  0  0  0  0  0  0  0  0  0  0
   13.8229   37.0451   35.5787 N   0  0  0  0  0  0  0  0  0  0  0  0
   16.1639   34.7593   33.1547 C   0  0  0  0  0  0  0  0  0  0  0  0
   15.6519   35.3489   35.4132 C   0  0  0  0  0  0  0  0  0  0  0  0
   16.3794   34.6308   34.5042 N   0  0  0  0  0  0  0  0  0  0  0  0
   15.9006   35.1931   36.8090 N   0  0  0  0  0  0  0  0  0  0  0  0
    9.8327   44.9918   32.1491 H   0  0  0  0  0  0  0  0  0  0  0  0
   11.3022   46.0981   34.4940 H   0  0  0  0  0  0  0  0  0  0  0  0
   11.9099   45.7266   32.9576 H   0  0  0  0  0  0  0  0  0  0  0  0
    8.4359   46.6560   33.3459 H   0  0  0  0  0  0  0  0  0  0  0  0
    7.8033   44.9950   33.5312 H   0  0  0  0  0  0  0  0  0  0  0  0
    9.7056   48.2350   37.4322 H   0  0  0  0  0  0  0  0  0  0  0  0
    9.7274   46.4761   37.7593 H   0  0  0  0  0  0  0  0  0  0  0  0
    7.3480   49.2801   36.8081 H   0  0  0  0  0  0  0  0  0  0  0  0
    7.8476   45.5770   38.9663 H   0  0  0  0  0  0  0  0  0  0  0  0
    5.0590   49.4878   37.7161 H   0  0  0  0  0  0  0  0  0  0  0  0
    5.5589   45.8020   39.8630 H   0  0  0  0  0  0  0  0  0  0  0  0
    4.1611   47.7532   39.2431 H   0  0  0  0  0  0  0  0  0  0  0  0
   11.3825   41.5504   31.4735 H   0  0  0  0  0  0  0  0  0  0  0  0
    9.8249   40.7180   31.7580 H   0  0  0  0  0  0  0  0  0  0  0  0
   11.7289   39.5289   30.3505 H   0  0  0  0  0  0  0  0  0  0  0  0
   10.1138   38.2717   32.6379 H   0  0  0  0  0  0  0  0  0  0  0  0
   13.6725   37.4637   31.2240 H   0  0  0  0  0  0  0  0  0  0  0  0
   10.0536   38.1085   29.7638 H   0  0  0  0  0  0  0  0  0  0  0  0
   11.2646   36.3134   32.5107 H   0  0  0  0  0  0  0  0  0  0  0  0
   12.1551   35.5033   30.6315 H   0  0  0  0  0  0  0  0  0  0  0  0
   12.3362   38.3586   34.7450 H   0  0  0  0  0  0  0  0  0  0  0  0
   16.7573   34.1788   32.4619 H   0  0  0  0  0  0  0  0  0  0  0  0
   16.6366   34.5314   37.1415 H   0  0  0  0  0  0  0  0  0  0  0  0
   15.3533   35.7353   37.5139 H   0  0  0  0  0  0  0  0  0  0  0  0
  1  2  2  0
  1  3  1  0
  3  4  1  0
  4  5  1  0
  6  1  1  0
  7  6  1  0
  6  8  1  0
  8  9  1  0
  9 10  1  0
  9 11  2  0
 10 12  1  0
 12 13  1  0
 13 14  2  0
 15 13  1  0
 14 16  1  0
 17 15  2  0
 16 18  2  0
 18 17  1  0
  4 19  2  0
  4 20  1  0
 21 20  1  0
 21 22  1  0
 22 23  1  0
 22 24  1  0
 23 25  1  0
 24 26  1  0
 24 27  1  0
 27 25  1  0
 25 28  1  0
 27 29  1  0
 30 28  1  0
 31 28  1  0
 32 30  2  0
 30 33  1  0
 34 31  2  0
 35 32  1  0
 33 36  2  0
 33 34  1  0
 37 35  2  0
 37 36  1  0
 36 38  1  0
  6 39  1  6
  7 40  1  0
  7 41  1  0
  8 42  1  0
  8 43  1  0
 12 44  1  0
 12 45  1  0
 14 46  1  0
 15 47  1  0
 16 48  1  0
 17 49  1  0
 18 50  1  0
 21 51  1  0
 21 52  1  0
 22 53  1  0
 24 54  1  0
 25 55  1  0
 26 56  1  0
 27 57  1  0
 29 58  1  0
 31 59  1  0
 35 60  1  0
 38 61  1  0
 38 62  1  0
M  CHG  1   5  -1
M  END
>  <EmbedRMS>  (221) 
0.08857277422102987

$$$$

     RDKit          3D

 62 65  0  0  0  0  0  0  0  0999 V2000
   10.2866   43.7707   33.8023 C   0  0  0  0  0  0  0  0  0  0  0  0
   11.4092   43.5868   34.3587 O   0  0  0  0  0  0  0  0  0  0  0  0
    9.3672   42.7305   33.6986 O   0  0  0  0  0  0  0  0  0  0  0  0
    9.8856   41.2340   34.2839 P   0  0  0  0  0  5  0  0  0  0  0  0
   10.3655   41.4707   35.8744 O   0  0  0  0  0  1  0  0  0  0  0  0
    9.9536   45.1150   33.2535 C   0  0  2  0  0  0  0  0  0  0  0  0
   11.0705   46.0345   33.4794 N   0  0  0  0  0  0  0  0  0  0  0  0
    8.6534   45.6665   33.8816 C   0  0  0  0  0  0  0  0  0  0  0  0
    8.6770   45.7243   35.3852 C   0  0  0  0  0  0  0  0  0  0  0  0
    9.8927   45.8178   36.0691 O   0  0  0  0  0  0  0  0  0  0  0  0
    7.5872   45.7181   36.0199 O   0  0  0  0  0  0  0  0  0  0  0  0
    9.9853   45.8019   37.4881 C   0  0  0  0  0  0  0  0  0  0  0  0
   11.4325   45.7750   37.8810 C   0  0  0  0  0  0  0  0  0  0  0  0
   12.1494   44.5680   37.8353 C   0  0  0  0  0  0  0  0  0  0  0  0
   12.1009   46.9614   38.2256 C   0  0  0  0  0  0  0  0  0  0  0  0
   13.5099   44.5447   38.1571 C   0  0  0  0  0  0  0  0  0  0  0  0
   13.4616   46.9336   38.5478 C   0  0  0  0  0  0  0  0  0  0  0  0
   14.1650   45.7261   38.5157 C   0  0  0  0  0  0  0  0  0  0  0  0
    8.8082   40.1910   34.2083 O   0  0  0  0  0  0  0  0  0  0  0  0
   11.2382   40.7899   33.3688 O   0  0  0  0  0  0  0  0  0  0  0  0
   10.9189   40.6888   31.9950 C   0  0  0  0  0  0  0  0  0  0  0  0
   11.5181   39.3800   31.4399 C   0  0  0  0  0  0  0  0  0  0  0  0
   12.7484   39.0876   32.0750 O   0  0  0  0  0  0  0  0  0  0  0  0
   10.6054   38.1875   31.6657 C   0  0  0  0  0  0  0  0  0  0  0  0
   12.9361   37.6816   32.0288 C   0  0  0  0  0  0  0  0  0  0  0  0
    9.6423   38.0738   30.6445 O   0  0  0  0  0  0  0  0  0  0  0  0
   11.5765   37.0158   31.7046 C   0  0  0  0  0  0  0  0  0  0  0  0
   13.4908   37.2183   33.3237 N   0  0  0  0  0  0  0  0  0  0  0  0
   11.6102   36.3399   30.4680 O   0  0  0  0  0  0  0  0  0  0  0  0
   14.4762   36.3274   33.5728 C   0  0  0  0  0  0  0  0  0  0  0  0
   13.1181   37.6319   34.5689 C   0  0  0  0  0  0  0  0  0  0  0  0
   15.2063   35.6141   32.6739 N   0  0  0  0  0  0  0  0  0  0  0  0
   14.6733   36.2275   34.9182 C   0  0  0  0  0  0  0  0  0  0  0  0
   13.8226   37.0457   35.5783 N   0  0  0  0  0  0  0  0  0  0  0  0
   16.1635   34.7595   33.1546 C   0  0  0  0  0  0  0  0  0  0  0  0
   15.6515   35.3492   35.4130 C   0  0  0  0  0  0  0  0  0  0  0  0
   16.3791   34.6310   34.5041 N   0  0  0  0  0  0  0  0  0  0  0  0
   15.9002   35.1934   36.8089 N   0  0  0  0  0  0  0  0  0  0  0  0
    9.7899   45.0079   32.1574 H   0  0  0  0  0  0  0  0  0  0  0  0
   10.8127   46.9714   33.0922 H   0  0  0  0  0  0  0  0  0  0  0  0
   11.8860   45.7112   32.9084 H   0  0  0  0  0  0  0  0  0  0  0  0
    8.4557   46.6875   33.4907 H   0  0  0  0  0  0  0  0  0  0  0  0
    7.8022   45.0262   33.5612 H   0  0  0  0  0  0  0  0  0  0  0  0
    9.4793   46.6993   37.9063 H   0  0  0  0  0  0  0  0  0  0  0  0
    9.4743   44.8986   37.8882 H   0  0  0  0  0  0  0  0  0  0  0  0
   11.6554   43.6480   37.5475 H   0  0  0  0  0  0  0  0  0  0  0  0
   11.5709   47.9056   38.2432 H   0  0  0  0  0  0  0  0  0  0  0  0
   14.0573   43.6115   38.1243 H   0  0  0  0  0  0  0  0  0  0  0  0
   13.9719   47.8491   38.8178 H   0  0  0  0  0  0  0  0  0  0  0  0
   15.2185   45.7069   38.7632 H   0  0  0  0  0  0  0  0  0  0  0  0
   11.3993   41.5436   31.4729 H   0  0  0  0  0  0  0  0  0  0  0  0
    9.8309   40.7374   31.7553 H   0  0  0  0  0  0  0  0  0  0  0  0
   11.7002   39.5047   30.3474 H   0  0  0  0  0  0  0  0  0  0  0  0
   10.1104   38.2619   32.6637 H   0  0  0  0  0  0  0  0  0  0  0  0
   13.6696   37.4587   31.2223 H   0  0  0  0  0  0  0  0  0  0  0  0
    8.9001   38.6883   30.8814 H   0  0  0  0  0  0  0  0  0  0  0  0
   11.2690   36.3069   32.5091 H   0  0  0  0  0  0  0  0  0  0  0  0
   12.1426   35.5151   30.6153 H   0  0  0  0  0  0  0  0  0  0  0  0
   12.3360   38.3594   34.7445 H   0  0  0  0  0  0  0  0  0  0  0  0
   16.7569   34.1789   32.4618 H   0  0  0  0  0  0  0  0  0  0  0  0
   16.6362   34.5315   37.1414 H   0  0  0  0  0  0  0  0  0  0  0  0
   15.3531   35.7357   37.5138 H   0  0  0  0  0  0  0  0  0  0  0  0
  1  2  2  0
  1  3  1  0
  3  4  1  0
  4  5  1  0
  6  1  1  0
  7  6  1  0
  6  8  1  0
  8  9  1  0
  9 10  1  0
  9 11  2  0
 10 12  1  0
 12 13  1  0
 13 14  2  0
 15 13  1  0
 14 16  1  0
 17 15  2  0
 16 18  2  0
 18 17  1  0
  4 19  2  0
  4 20  1  0
 21 20  1  0
 21 22  1  0
 22 23  1  0
 22 24  1  0
 23 25  1  0
 24 26  1  0
 24 27  1  0
 27 25  1  0
 25 28  1  0
 27 29  1  0
 30 28  1  0
 31 28  1  0
 32 30  2  0
 30 33  1  0
 34 31  2  0
 35 32  1  0
 33 36  2  0
 33 34  1  0
 37 35  2  0
 37 36  1  0
 36 38  1  0
  6 39  1  6
  7 40  1  0
  7 41  1  0
  8 42  1  0
  8 43  1  0
 12 44  1  0
 12 45  1  0
 14 46  1  0
 15 47  1  0
 16 48  1  0
 17 49  1  0
 18 50  1  0
 21 51  1  0
 21 52  1  0
 22 53  1  0
 24 54  1  0
 25 55  1  0
 26 56  1  0
 27 57  1  0
 29 58  1  0
 31 59  1  0
 35 60  1  0
 38 61  1  0
 38 62  1  0
M  CHG  1   5  -1
M  END
>  <EmbedRMS>  (222) 
0.08923879484570453

$$$$

     RDKit          3D

 62 65  0  0  0  0  0  0  0  0999 V2000
   10.2828   43.7755   33.8078 C   0  0  0  0  0  0  0  0  0  0  0  0
   11.4085   43.5914   34.3577 O   0  0  0  0  0  0  0  0  0  0  0  0
    9.3663   42.7322   33.7019 O   0  0  0  0  0  0  0  0  0  0  0  0
    9.8859   41.2348   34.2841 P   0  0  0  0  0  5  0  0  0  0  0  0
   10.3673   41.4695   35.8744 O   0  0  0  0  0  1  0  0  0  0  0  0
    9.9539   45.1112   33.2429 C   0  0  2  0  0  0  0  0  0  0  0  0
   11.0723   46.0271   33.4850 N   0  0  0  0  0  0  0  0  0  0  0  0
    8.6386   45.6435   33.8507 C   0  0  0  0  0  0  0  0  0  0  0  0
    8.2437   46.9453   33.2275 C   0  0  0  0  0  0  0  0  0  0  0  0
    7.7949   46.9623   31.9027 O   0  0  0  0  0  0  0  0  0  0  0  0
    8.3589   48.0163   33.8839 O   0  0  0  0  0  0  0  0  0  0  0  0
    7.6142   48.1636   31.1572 C   0  0  0  0  0  0  0  0  0  0  0  0
    8.9488   48.7860   30.8487 C   0  0  0  0  0  0  0  0  0  0  0  0
    9.3100   50.0232   31.4076 C   0  0  0  0  0  0  0  0  0  0  0  0
    9.8634   48.1079   30.0264 C   0  0  0  0  0  0  0  0  0  0  0  0
   10.5665   50.5757   31.1401 C   0  0  0  0  0  0  0  0  0  0  0  0
   11.1192   48.6633   29.7623 C   0  0  0  0  0  0  0  0  0  0  0  0
   11.4702   49.8966   30.3181 C   0  0  0  0  0  0  0  0  0  0  0  0
    8.8084   40.1917   34.2087 O   0  0  0  0  0  0  0  0  0  0  0  0
   11.2371   40.7920   33.3667 O   0  0  0  0  0  0  0  0  0  0  0  0
   10.9133   40.6862   31.9944 C   0  0  0  0  0  0  0  0  0  0  0  0
   11.5169   39.3798   31.4410 C   0  0  0  0  0  0  0  0  0  0  0  0
   12.7486   39.0887   32.0764 O   0  0  0  0  0  0  0  0  0  0  0  0
   10.6051   38.1877   31.6659 C   0  0  0  0  0  0  0  0  0  0  0  0
   12.9411   37.6829   32.0278 C   0  0  0  0  0  0  0  0  0  0  0  0
    9.6358   38.0930   30.6503 O   0  0  0  0  0  0  0  0  0  0  0  0
   11.5827   37.0180   31.6937 C   0  0  0  0  0  0  0  0  0  0  0  0
   13.4909   37.2177   33.3239 N   0  0  0  0  0  0  0  0  0  0  0  0
   11.6141   36.3180   30.4675 O   0  0  0  0  0  0  0  0  0  0  0  0
   14.4762   36.3270   33.5733 C   0  0  0  0  0  0  0  0  0  0  0  0
   13.1179   37.6316   34.5689 C   0  0  0  0  0  0  0  0  0  0  0  0
   15.2067   35.6140   32.6743 N   0  0  0  0  0  0  0  0  0  0  0  0
   14.6731   36.2273   34.9186 C   0  0  0  0  0  0  0  0  0  0  0  0
   13.8223   37.0456   35.5785 N   0  0  0  0  0  0  0  0  0  0  0  0
   16.1639   34.7595   33.1550 C   0  0  0  0  0  0  0  0  0  0  0  0
   15.6515   35.3491   35.4134 C   0  0  0  0  0  0  0  0  0  0  0  0
   16.3792   34.6310   34.5045 N   0  0  0  0  0  0  0  0  0  0  0  0
   15.9003   35.1933   36.8092 N   0  0  0  0  0  0  0  0  0  0  0  0
    9.8238   44.9842   32.1447 H   0  0  0  0  0  0  0  0  0  0  0  0
   11.0717   46.3305   34.4868 H   0  0  0  0  0  0  0  0  0  0  0  0
   10.9457   46.8825   32.8964 H   0  0  0  0  0  0  0  0  0  0  0  0
    8.7454   45.7655   34.9515 H   0  0  0  0  0  0  0  0  0  0  0  0
    7.8191   44.9147   33.6697 H   0  0  0  0  0  0  0  0  0  0  0  0
    7.1030   47.9168   30.2029 H   0  0  0  0  0  0  0  0  0  0  0  0
    6.9540   48.8617   31.7172 H   0  0  0  0  0  0  0  0  0  0  0  0
    8.6236   50.5570   32.0530 H   0  0  0  0  0  0  0  0  0  0  0  0
    9.6054   47.1476   29.5971 H   0  0  0  0  0  0  0  0  0  0  0  0
   10.8410   51.5291   31.5728 H   0  0  0  0  0  0  0  0  0  0  0  0
   11.8211   48.1362   29.1292 H   0  0  0  0  0  0  0  0  0  0  0  0
   12.4430   50.3249   30.1138 H   0  0  0  0  0  0  0  0  0  0  0  0
   11.3847   41.5435   31.4679 H   0  0  0  0  0  0  0  0  0  0  0  0
    9.8231   40.7209   31.7583 H   0  0  0  0  0  0  0  0  0  0  0  0
   11.6994   39.5065   30.3488 H   0  0  0  0  0  0  0  0  0  0  0  0
   10.1120   38.2723   32.6632 H   0  0  0  0  0  0  0  0  0  0  0  0
   13.6816   37.4634   31.2269 H   0  0  0  0  0  0  0  0  0  0  0  0
    9.0037   37.3828   30.9349 H   0  0  0  0  0  0  0  0  0  0  0  0
   11.2846   36.3041   32.4929 H   0  0  0  0  0  0  0  0  0  0  0  0
   11.8850   36.9591   29.7589 H   0  0  0  0  0  0  0  0  0  0  0  0
   12.3363   38.3599   34.7441 H   0  0  0  0  0  0  0  0  0  0  0  0
   16.7574   34.1791   32.4623 H   0  0  0  0  0  0  0  0  0  0  0  0
   15.3529   35.7355   37.5141 H   0  0  0  0  0  0  0  0  0  0  0  0
   16.6363   34.5317   37.1418 H   0  0  0  0  0  0  0  0  0  0  0  0
  1  2  2  0
  1  3  1  0
  3  4  1  0
  4  5  1  0
  6  1  1  0
  7  6  1  0
  6  8  1  0
  8  9  1  0
  9 10  1  0
  9 11  2  0
 10 12  1  0
 12 13  1  0
 13 14  2  0
 15 13  1  0
 14 16  1  0
 17 15  2  0
 16 18  2  0
 18 17  1  0
  4 19  2  0
  4 20  1  0
 21 20  1  0
 21 22  1  0
 22 23  1  0
 22 24  1  0
 23 25  1  0
 24 26  1  0
 24 27  1  0
 27 25  1  0
 25 28  1  0
 27 29  1  0
 30 28  1  0
 31 28  1  0
 32 30  2  0
 30 33  1  0
 34 31  2  0
 35 32  1  0
 33 36  2  0
 33 34  1  0
 37 35  2  0
 37 36  1  0
 36 38  1  0
  6 39  1  6
  7 40  1  0
  7 41  1  0
  8 42  1  0
  8 43  1  0
 12 44  1  0
 12 45  1  0
 14 46  1  0
 15 47  1  0
 16 48  1  0
 17 49  1  0
 18 50  1  0
 21 51  1  0
 21 52  1  0
 22 53  1  0
 24 54  1  0
 25 55  1  0
 26 56  1  0
 27 57  1  0
 29 58  1  0
 31 59  1  0
 35 60  1  0
 38 61  1  0
 38 62  1  0
M  CHG  1   5  -1
M  END
>  <EmbedRMS>  (223) 
0.08754262576344543

$$$$

     RDKit          3D

 62 65  0  0  0  0  0  0  0  0999 V2000
   10.2827   43.7756   33.8077 C   0  0  0  0  0  0  0  0  0  0  0  0
   11.4085   43.5914   34.3576 O   0  0  0  0  0  0  0  0  0  0  0  0
    9.3664   42.7321   33.7017 O   0  0  0  0  0  0  0  0  0  0  0  0
    9.8857   41.2349   34.2847 P   0  0  0  0  0  5  0  0  0  0  0  0
   10.3666   41.4698   35.8750 O   0  0  0  0  0  1  0  0  0  0  0  0
    9.9535   45.1118   33.2434 C   0  0  2  0  0  0  0  0  0  0  0  0
   11.0726   46.0268   33.4848 N   0  0  0  0  0  0  0  0  0  0  0  0
    8.6400   45.6444   33.8542 C   0  0  0  0  0  0  0  0  0  0  0  0
    8.2242   46.9357   33.2215 C   0  0  0  0  0  0  0  0  0  0  0  0
    8.5473   48.1444   33.8484 O   0  0  0  0  0  0  0  0  0  0  0  0
    7.6220   46.9239   32.1133 O   0  0  0  0  0  0  0  0  0  0  0  0
    8.1854   49.4196   33.3233 C   0  0  0  0  0  0  0  0  0  0  0  0
    6.7059   49.6479   33.4719 C   0  0  0  0  0  0  0  0  0  0  0  0
    6.1458   49.8018   34.7505 C   0  0  0  0  0  0  0  0  0  0  0  0
    5.8689   49.6821   32.3439 C   0  0  0  0  0  0  0  0  0  0  0  0
    4.7687   49.9958   34.8974 C   0  0  0  0  0  0  0  0  0  0  0  0
    4.4922   49.8762   32.4952 C   0  0  0  0  0  0  0  0  0  0  0  0
    3.9426   50.0337   33.7706 C   0  0  0  0  0  0  0  0  0  0  0  0
    8.8084   40.1917   34.2088 O   0  0  0  0  0  0  0  0  0  0  0  0
   11.2372   40.7914   33.3686 O   0  0  0  0  0  0  0  0  0  0  0  0
   10.9152   40.6899   31.9958 C   0  0  0  0  0  0  0  0  0  0  0  0
   11.5269   39.3898   31.4374 C   0  0  0  0  0  0  0  0  0  0  0  0
   12.7506   39.0917   32.0840 O   0  0  0  0  0  0  0  0  0  0  0  0
   10.6121   38.1916   31.6452 C   0  0  0  0  0  0  0  0  0  0  0  0
   12.9429   37.6853   32.0295 C   0  0  0  0  0  0  0  0  0  0  0  0
    9.6069   38.0858   30.6603 O   0  0  0  0  0  0  0  0  0  0  0  0
   11.5845   37.0186   31.6880 C   0  0  0  0  0  0  0  0  0  0  0  0
   13.4899   37.2163   33.3250 N   0  0  0  0  0  0  0  0  0  0  0  0
   11.6202   36.3063   30.4693 O   0  0  0  0  0  0  0  0  0  0  0  0
   14.4759   36.3263   33.5738 C   0  0  0  0  0  0  0  0  0  0  0  0
   13.1176   37.6307   34.5699 C   0  0  0  0  0  0  0  0  0  0  0  0
   15.2065   35.6139   32.6746 N   0  0  0  0  0  0  0  0  0  0  0  0
   14.6731   36.2267   34.9191 C   0  0  0  0  0  0  0  0  0  0  0  0
   13.8224   37.0450   35.5792 N   0  0  0  0  0  0  0  0  0  0  0  0
   16.1640   34.7596   33.1551 C   0  0  0  0  0  0  0  0  0  0  0  0
   15.6517   35.3489   35.4136 C   0  0  0  0  0  0  0  0  0  0  0  0
   16.3795   34.6310   34.5046 N   0  0  0  0  0  0  0  0  0  0  0  0
   15.9006   35.1931   36.8094 N   0  0  0  0  0  0  0  0  0  0  0  0
    9.8207   44.9853   32.1456 H   0  0  0  0  0  0  0  0  0  0  0  0
   11.0774   46.3246   34.4884 H   0  0  0  0  0  0  0  0  0  0  0  0
   10.9423   46.8853   32.9020 H   0  0  0  0  0  0  0  0  0  0  0  0
    8.7582   45.7917   34.9501 H   0  0  0  0  0  0  0  0  0  0  0  0
    7.8251   44.9028   33.7027 H   0  0  0  0  0  0  0  0  0  0  0  0
    8.5081   49.4979   32.2618 H   0  0  0  0  0  0  0  0  0  0  0  0
    8.7292   50.2041   33.8907 H   0  0  0  0  0  0  0  0  0  0  0  0
    6.7756   49.7697   35.6310 H   0  0  0  0  0  0  0  0  0  0  0  0
    6.2797   49.5567   31.3498 H   0  0  0  0  0  0  0  0  0  0  0  0
    4.3418   50.1151   35.8848 H   0  0  0  0  0  0  0  0  0  0  0  0
    3.8511   49.9027   31.6236 H   0  0  0  0  0  0  0  0  0  0  0  0
    2.8769   50.1831   33.8859 H   0  0  0  0  0  0  0  0  0  0  0  0
    9.8250   40.7188   31.7590 H   0  0  0  0  0  0  0  0  0  0  0  0
   11.3817   41.5526   31.4737 H   0  0  0  0  0  0  0  0  0  0  0  0
   11.7318   39.5337   30.3520 H   0  0  0  0  0  0  0  0  0  0  0  0
   10.1214   38.2682   32.6413 H   0  0  0  0  0  0  0  0  0  0  0  0
   13.6882   37.4709   31.2319 H   0  0  0  0  0  0  0  0  0  0  0  0
   10.0256   38.1751   29.7656 H   0  0  0  0  0  0  0  0  0  0  0  0
   11.2796   36.3123   32.4915 H   0  0  0  0  0  0  0  0  0  0  0  0
   11.9872   36.9099   29.7715 H   0  0  0  0  0  0  0  0  0  0  0  0
   12.3365   38.3595   34.7453 H   0  0  0  0  0  0  0  0  0  0  0  0
   16.7576   34.1794   32.4622 H   0  0  0  0  0  0  0  0  0  0  0  0
   16.6368   34.5316   37.1418 H   0  0  0  0  0  0  0  0  0  0  0  0
   15.3532   35.7351   37.5143 H   0  0  0  0  0  0  0  0  0  0  0  0
  1  2  2  0
  1  3  1  0
  3  4  1  0
  4  5  1  0
  6  1  1  0
  7  6  1  0
  6  8  1  0
  8  9  1  0
  9 10  1  0
  9 11  2  0
 10 12  1  0
 12 13  1  0
 13 14  2  0
 15 13  1  0
 14 16  1  0
 17 15  2  0
 16 18  2  0
 18 17  1  0
  4 19  2  0
  4 20  1  0
 21 20  1  0
 21 22  1  0
 22 23  1  0
 22 24  1  0
 23 25  1  0
 24 26  1  0
 24 27  1  0
 27 25  1  0
 25 28  1  0
 27 29  1  0
 30 28  1  0
 31 28  1  0
 32 30  2  0
 30 33  1  0
 34 31  2  0
 35 32  1  0
 33 36  2  0
 33 34  1  0
 37 35  2  0
 37 36  1  0
 36 38  1  0
  6 39  1  6
  7 40  1  0
  7 41  1  0
  8 42  1  0
  8 43  1  0
 12 44  1  0
 12 45  1  0
 14 46  1  0
 15 47  1  0
 16 48  1  0
 17 49  1  0
 18 50  1  0
 21 51  1  0
 21 52  1  0
 22 53  1  0
 24 54  1  0
 25 55  1  0
 26 56  1  0
 27 57  1  0
 29 58  1  0
 31 59  1  0
 35 60  1  0
 38 61  1  0
 38 62  1  0
M  CHG  1   5  -1
M  END
>  <EmbedRMS>  (224) 
0.08670438957050554

$$$$

     RDKit          3D

 62 65  0  0  0  0  0  0  0  0999 V2000
   10.2842   43.7736   33.8096 C   0  0  0  0  0  0  0  0  0  0  0  0
   11.4072   43.5898   34.3647 O   0  0  0  0  0  0  0  0  0  0  0  0
    9.3709   42.7297   33.6929 O   0  0  0  0  0  0  0  0  0  0  0  0
    9.8856   41.2343   34.2831 P   0  0  0  0  0  5  0  0  0  0  0  0
   10.3641   41.4721   35.8739 O   0  0  0  0  0  1  0  0  0  0  0  0
    9.9459   45.1186   33.2697 C   0  0  2  0  0  0  0  0  0  0  0  0
   11.0765   46.0289   33.4621 N   0  0  0  0  0  0  0  0  0  0  0  0
    8.6726   45.6781   33.9417 C   0  0  0  0  0  0  0  0  0  0  0  0
    8.8489   45.9211   35.4246 C   0  0  0  0  0  0  0  0  0  0  0  0
    8.2469   45.1284   36.4143 O   0  0  0  0  0  0  0  0  0  0  0  0
    9.5827   46.8752   35.7948 O   0  0  0  0  0  0  0  0  0  0  0  0
    7.2602   44.1220   36.1885 C   0  0  0  0  0  0  0  0  0  0  0  0
    5.9490   44.7338   35.7721 C   0  0  0  0  0  0  0  0  0  0  0  0
    5.3916   45.7858   36.5181 C   0  0  0  0  0  0  0  0  0  0  0  0
    5.2484   44.2307   34.6627 C   0  0  0  0  0  0  0  0  0  0  0  0
    4.1649   46.3427   36.1433 C   0  0  0  0  0  0  0  0  0  0  0  0
    4.0222   44.7907   34.2911 C   0  0  0  0  0  0  0  0  0  0  0  0
    3.4818   45.8472   35.0293 C   0  0  0  0  0  0  0  0  0  0  0  0
    8.8072   40.1922   34.2079 O   0  0  0  0  0  0  0  0  0  0  0  0
   11.2373   40.7885   33.3692 O   0  0  0  0  0  0  0  0  0  0  0  0
   10.9165   40.6894   31.9959 C   0  0  0  0  0  0  0  0  0  0  0  0
   11.5274   39.3896   31.4370 C   0  0  0  0  0  0  0  0  0  0  0  0
   12.7511   39.0913   32.0834 O   0  0  0  0  0  0  0  0  0  0  0  0
   10.6123   38.1916   31.6451 C   0  0  0  0  0  0  0  0  0  0  0  0
   12.9430   37.6850   32.0294 C   0  0  0  0  0  0  0  0  0  0  0  0
    9.6070   38.0858   30.6603 O   0  0  0  0  0  0  0  0  0  0  0  0
   11.5845   37.0185   31.6879 C   0  0  0  0  0  0  0  0  0  0  0  0
   13.4899   37.2162   33.3250 N   0  0  0  0  0  0  0  0  0  0  0  0
   11.6200   36.3061   30.4692 O   0  0  0  0  0  0  0  0  0  0  0  0
   14.4759   36.3263   33.5739 C   0  0  0  0  0  0  0  0  0  0  0  0
   13.1175   37.6307   34.5698 C   0  0  0  0  0  0  0  0  0  0  0  0
   15.2065   35.6138   32.6746 N   0  0  0  0  0  0  0  0  0  0  0  0
   14.6731   36.2267   34.9191 C   0  0  0  0  0  0  0  0  0  0  0  0
   13.8224   37.0450   35.5792 N   0  0  0  0  0  0  0  0  0  0  0  0
   16.1640   34.7595   33.1551 C   0  0  0  0  0  0  0  0  0  0  0  0
   15.6518   35.3489   35.4136 C   0  0  0  0  0  0  0  0  0  0  0  0
   16.3795   34.6310   34.5046 N   0  0  0  0  0  0  0  0  0  0  0  0
   15.9006   35.1931   36.8094 N   0  0  0  0  0  0  0  0  0  0  0  0
    9.7458   45.0109   32.1798 H   0  0  0  0  0  0  0  0  0  0  0  0
   11.8724   45.6970   32.8687 H   0  0  0  0  0  0  0  0  0  0  0  0
   10.8144   46.9661   33.0781 H   0  0  0  0  0  0  0  0  0  0  0  0
    7.8242   44.9972   33.7373 H   0  0  0  0  0  0  0  0  0  0  0  0
    8.4074   46.6442   33.4603 H   0  0  0  0  0  0  0  0  0  0  0  0
    7.6279   43.3851   35.4465 H   0  0  0  0  0  0  0  0  0  0  0  0
    7.0995   43.5705   37.1382 H   0  0  0  0  0  0  0  0  0  0  0  0
    5.9076   46.1748   37.3872 H   0  0  0  0  0  0  0  0  0  0  0  0
    5.6521   43.4095   34.0833 H   0  0  0  0  0  0  0  0  0  0  0  0
    3.7426   47.1569   36.7180 H   0  0  0  0  0  0  0  0  0  0  0  0
    3.4896   44.4041   33.4318 H   0  0  0  0  0  0  0  0  0  0  0  0
    2.5322   46.2789   34.7407 H   0  0  0  0  0  0  0  0  0  0  0  0
    9.8266   40.7194   31.7579 H   0  0  0  0  0  0  0  0  0  0  0  0
   11.3845   41.5523   31.4755 H   0  0  0  0  0  0  0  0  0  0  0  0
   11.7321   39.5336   30.3516 H   0  0  0  0  0  0  0  0  0  0  0  0
   10.1217   38.2684   32.6412 H   0  0  0  0  0  0  0  0  0  0  0  0
   13.6882   37.4702   31.2318 H   0  0  0  0  0  0  0  0  0  0  0  0
   10.0256   38.1750   29.7656 H   0  0  0  0  0  0  0  0  0  0  0  0
   11.2795   36.3123   32.4915 H   0  0  0  0  0  0  0  0  0  0  0  0
   11.9871   36.9098   29.7714 H   0  0  0  0  0  0  0  0  0  0  0  0
   12.3365   38.3595   34.7452 H   0  0  0  0  0  0  0  0  0  0  0  0
   16.7577   34.1794   32.4622 H   0  0  0  0  0  0  0  0  0  0  0  0
   16.6368   34.5316   37.1418 H   0  0  0  0  0  0  0  0  0  0  0  0
   15.3532   35.7351   37.5144 H   0  0  0  0  0  0  0  0  0  0  0  0
  1  2  2  0
  1  3  1  0
  3  4  1  0
  4  5  1  0
  6  1  1  0
  7  6  1  0
  6  8  1  0
  8  9  1  0
  9 10  1  0
  9 11  2  0
 10 12  1  0
 12 13  1  0
 13 14  2  0
 15 13  1  0
 14 16  1  0
 17 15  2  0
 16 18  2  0
 18 17  1  0
  4 19  2  0
  4 20  1  0
 21 20  1  0
 21 22  1  0
 22 23  1  0
 22 24  1  0
 23 25  1  0
 24 26  1  0
 24 27  1  0
 27 25  1  0
 25 28  1  0
 27 29  1  0
 30 28  1  0
 31 28  1  0
 32 30  2  0
 30 33  1  0
 34 31  2  0
 35 32  1  0
 33 36  2  0
 33 34  1  0
 37 35  2  0
 37 36  1  0
 36 38  1  0
  6 39  1  6
  7 40  1  0
  7 41  1  0
  8 42  1  0
  8 43  1  0
 12 44  1  0
 12 45  1  0
 14 46  1  0
 15 47  1  0
 16 48  1  0
 17 49  1  0
 18 50  1  0
 21 51  1  0
 21 52  1  0
 22 53  1  0
 24 54  1  0
 25 55  1  0
 26 56  1  0
 27 57  1  0
 29 58  1  0
 31 59  1  0
 35 60  1  0
 38 61  1  0
 38 62  1  0
M  CHG  1   5  -1
M  END
>  <EmbedRMS>  (225) 
0.08746383664888205

$$$$

     RDKit          3D

 62 65  0  0  0  0  0  0  0  0999 V2000
   10.2800   43.7759   33.8079 C   0  0  0  0  0  0  0  0  0  0  0  0
   11.4058   43.5914   34.3580 O   0  0  0  0  0  0  0  0  0  0  0  0
    9.3678   42.7297   33.6980 O   0  0  0  0  0  0  0  0  0  0  0  0
    9.8866   41.2341   34.2841 P   0  0  0  0  0  5  0  0  0  0  0  0
   10.3665   41.4708   35.8744 O   0  0  0  0  0  1  0  0  0  0  0  0
    9.9520   45.1175   33.2460 C   0  0  2  0  0  0  0  0  0  0  0  0
   11.0762   46.0248   33.4836 N   0  0  0  0  0  0  0  0  0  0  0  0
    8.6556   45.6922   33.8605 C   0  0  0  0  0  0  0  0  0  0  0  0
    7.4315   45.0254   33.3109 C   0  0  0  0  0  0  0  0  0  0  0  0
    6.8347   43.9823   34.0240 O   0  0  0  0  0  0  0  0  0  0  0  0
    6.9673   45.3906   32.1962 O   0  0  0  0  0  0  0  0  0  0  0  0
    5.6774   43.2971   33.5591 C   0  0  0  0  0  0  0  0  0  0  0  0
    5.3606   42.1701   34.4974 C   0  0  0  0  0  0  0  0  0  0  0  0
    5.6762   40.8449   34.1542 C   0  0  0  0  0  0  0  0  0  0  0  0
    4.7933   42.4402   35.7533 C   0  0  0  0  0  0  0  0  0  0  0  0
    5.4134   39.8042   35.0505 C   0  0  0  0  0  0  0  0  0  0  0  0
    4.5309   41.3964   36.6464 C   0  0  0  0  0  0  0  0  0  0  0  0
    4.8399   40.0794   36.2949 C   0  0  0  0  0  0  0  0  0  0  0  0
    8.8114   40.1892   34.2092 O   0  0  0  0  0  0  0  0  0  0  0  0
   11.2380   40.7906   33.3678 O   0  0  0  0  0  0  0  0  0  0  0  0
   10.9151   40.6882   31.9951 C   0  0  0  0  0  0  0  0  0  0  0  0
   11.5258   39.3871   31.4366 C   0  0  0  0  0  0  0  0  0  0  0  0
   12.7490   39.0893   32.0819 O   0  0  0  0  0  0  0  0  0  0  0  0
   10.6120   38.1894   31.6463 C   0  0  0  0  0  0  0  0  0  0  0  0
   12.9372   37.6827   32.0301 C   0  0  0  0  0  0  0  0  0  0  0  0
    9.6147   38.0839   30.6540 O   0  0  0  0  0  0  0  0  0  0  0  0
   11.5791   37.0137   31.7015 C   0  0  0  0  0  0  0  0  0  0  0  0
   13.4906   37.2170   33.3242 N   0  0  0  0  0  0  0  0  0  0  0  0
   11.6215   36.3253   30.4726 O   0  0  0  0  0  0  0  0  0  0  0  0
   14.4763   36.3267   33.5731 C   0  0  0  0  0  0  0  0  0  0  0  0
   13.1181   37.6308   34.5694 C   0  0  0  0  0  0  0  0  0  0  0  0
   15.2065   35.6137   32.6740 N   0  0  0  0  0  0  0  0  0  0  0  0
   14.6735   36.2270   34.9185 C   0  0  0  0  0  0  0  0  0  0  0  0
   13.8228   37.0451   35.5787 N   0  0  0  0  0  0  0  0  0  0  0  0
   16.1639   34.7593   33.1547 C   0  0  0  0  0  0  0  0  0  0  0  0
   15.6518   35.3489   35.4132 C   0  0  0  0  0  0  0  0  0  0  0  0
   16.3794   34.6308   34.5042 N   0  0  0  0  0  0  0  0  0  0  0  0
   15.9006   35.1931   36.8090 N   0  0  0  0  0  0  0  0  0  0  0  0
    9.8227   45.0050   32.1461 H   0  0  0  0  0  0  0  0  0  0  0  0
   11.1084   46.2860   34.4971 H   0  0  0  0  0  0  0  0  0  0  0  0
   10.9162   46.9051   32.9415 H   0  0  0  0  0  0  0  0  0  0  0  0
    8.5859   46.7789   33.6351 H   0  0  0  0  0  0  0  0  0  0  0  0
    8.6738   45.5859   34.9674 H   0  0  0  0  0  0  0  0  0  0  0  0
    5.8579   42.9099   32.5320 H   0  0  0  0  0  0  0  0  0  0  0  0
    4.8186   44.0019   33.5163 H   0  0  0  0  0  0  0  0  0  0  0  0
    6.1286   40.6173   33.1969 H   0  0  0  0  0  0  0  0  0  0  0  0
    4.5582   43.4578   36.0403 H   0  0  0  0  0  0  0  0  0  0  0  0
    5.6580   38.7847   34.7815 H   0  0  0  0  0  0  0  0  0  0  0  0
    4.0915   41.6091   37.6124 H   0  0  0  0  0  0  0  0  0  0  0  0
    4.6383   39.2729   36.9880 H   0  0  0  0  0  0  0  0  0  0  0  0
    9.8246   40.7176   31.7590 H   0  0  0  0  0  0  0  0  0  0  0  0
   11.3815   41.5503   31.4721 H   0  0  0  0  0  0  0  0  0  0  0  0
   11.7287   39.5287   30.3505 H   0  0  0  0  0  0  0  0  0  0  0  0
   10.1136   38.2719   32.6381 H   0  0  0  0  0  0  0  0  0  0  0  0
   13.6724   37.4636   31.2240 H   0  0  0  0  0  0  0  0  0  0  0  0
   10.0532   38.1086   29.7640 H   0  0  0  0  0  0  0  0  0  0  0  0
   11.2644   36.3135   32.5108 H   0  0  0  0  0  0  0  0  0  0  0  0
   12.1547   35.5032   30.6316 H   0  0  0  0  0  0  0  0  0  0  0  0
   12.3360   38.3585   34.7451 H   0  0  0  0  0  0  0  0  0  0  0  0
   16.7573   34.1789   32.4619 H   0  0  0  0  0  0  0  0  0  0  0  0
   16.6366   34.5314   37.1415 H   0  0  0  0  0  0  0  0  0  0  0  0
   15.3533   35.7353   37.5139 H   0  0  0  0  0  0  0  0  0  0  0  0
  1  2  2  0
  1  3  1  0
  3  4  1  0
  4  5  1  0
  6  1  1  0
  7  6  1  0
  6  8  1  0
  8  9  1  0
  9 10  1  0
  9 11  2  0
 10 12  1  0
 12 13  1  0
 13 14  2  0
 15 13  1  0
 14 16  1  0
 17 15  2  0
 16 18  2  0
 18 17  1  0
  4 19  2  0
  4 20  1  0
 21 20  1  0
 21 22  1  0
 22 23  1  0
 22 24  1  0
 23 25  1  0
 24 26  1  0
 24 27  1  0
 27 25  1  0
 25 28  1  0
 27 29  1  0
 30 28  1  0
 31 28  1  0
 32 30  2  0
 30 33  1  0
 34 31  2  0
 35 32  1  0
 33 36  2  0
 33 34  1  0
 37 35  2  0
 37 36  1  0
 36 38  1  0
  6 39  1  6
  7 40  1  0
  7 41  1  0
  8 42  1  0
  8 43  1  0
 12 44  1  0
 12 45  1  0
 14 46  1  0
 15 47  1  0
 16 48  1  0
 17 49  1  0
 18 50  1  0
 21 51  1  0
 21 52  1  0
 22 53  1  0
 24 54  1  0
 25 55  1  0
 26 56  1  0
 27 57  1  0
 29 58  1  0
 31 59  1  0
 35 60  1  0
 38 61  1  0
 38 62  1  0
M  CHG  1   5  -1
M  END
>  <EmbedRMS>  (226) 
0.08764820736151585

$$$$

     RDKit          3D

 62 65  0  0  0  0  0  0  0  0999 V2000
   10.2802   43.7757   33.8074 C   0  0  0  0  0  0  0  0  0  0  0  0
   11.4058   43.5915   34.3579 O   0  0  0  0  0  0  0  0  0  0  0  0
    9.3679   42.7297   33.6982 O   0  0  0  0  0  0  0  0  0  0  0  0
    9.8869   41.2341   34.2846 P   0  0  0  0  0  5  0  0  0  0  0  0
   10.3659   41.4709   35.8751 O   0  0  0  0  0  1  0  0  0  0  0  0
    9.9532   45.1166   33.2431 C   0  0  2  0  0  0  0  0  0  0  0  0
   11.0749   46.0255   33.4864 N   0  0  0  0  0  0  0  0  0  0  0  0
    8.6517   45.6890   33.8494 C   0  0  0  0  0  0  0  0  0  0  0  0
    7.4323   45.0387   33.2704 C   0  0  0  0  0  0  0  0  0  0  0  0
    6.8341   43.9696   33.9425 O   0  0  0  0  0  0  0  0  0  0  0  0
    6.9743   45.4409   32.1659 O   0  0  0  0  0  0  0  0  0  0  0  0
    5.6837   43.2960   33.4443 C   0  0  0  0  0  0  0  0  0  0  0  0
    5.3703   42.1293   34.3340 C   0  0  0  0  0  0  0  0  0  0  0  0
    4.7883   42.3431   35.5939 C   0  0  0  0  0  0  0  0  0  0  0  0
    5.7037   40.8222   33.9415 C   0  0  0  0  0  0  0  0  0  0  0  0
    4.5283   41.2617   36.4419 C   0  0  0  0  0  0  0  0  0  0  0  0
    5.4429   39.7438   34.7926 C   0  0  0  0  0  0  0  0  0  0  0  0
    4.8545   39.9631   36.0412 C   0  0  0  0  0  0  0  0  0  0  0  0
    8.8122   40.1889   34.2090 O   0  0  0  0  0  0  0  0  0  0  0  0
   11.2393   40.7914   33.3695 O   0  0  0  0  0  0  0  0  0  0  0  0
   10.9186   40.6905   31.9963 C   0  0  0  0  0  0  0  0  0  0  0  0
   11.5172   39.3824   31.4413 C   0  0  0  0  0  0  0  0  0  0  0  0
   12.7493   39.0893   32.0755 O   0  0  0  0  0  0  0  0  0  0  0  0
   10.6033   38.1900   31.6663 C   0  0  0  0  0  0  0  0  0  0  0  0
   12.9399   37.6834   32.0276 C   0  0  0  0  0  0  0  0  0  0  0  0
    9.6371   38.0788   30.6479 O   0  0  0  0  0  0  0  0  0  0  0  0
   11.5801   37.0204   31.6938 C   0  0  0  0  0  0  0  0  0  0  0  0
   13.4901   37.2177   33.3237 N   0  0  0  0  0  0  0  0  0  0  0  0
   11.6115   36.3194   30.4680 O   0  0  0  0  0  0  0  0  0  0  0  0
   14.4758   36.3272   33.5731 C   0  0  0  0  0  0  0  0  0  0  0  0
   13.1175   37.6317   34.5688 C   0  0  0  0  0  0  0  0  0  0  0  0
   15.2063   35.6142   32.6742 N   0  0  0  0  0  0  0  0  0  0  0  0
   14.6729   36.2274   34.9184 C   0  0  0  0  0  0  0  0  0  0  0  0
   13.8221   37.0457   35.5783 N   0  0  0  0  0  0  0  0  0  0  0  0
   16.1636   34.7597   33.1549 C   0  0  0  0  0  0  0  0  0  0  0  0
   15.6513   35.3493   35.4132 C   0  0  0  0  0  0  0  0  0  0  0  0
   16.3791   34.6312   34.5043 N   0  0  0  0  0  0  0  0  0  0  0  0
   15.9001   35.1935   36.8091 N   0  0  0  0  0  0  0  0  0  0  0  0
    9.8313   45.0031   32.1425 H   0  0  0  0  0  0  0  0  0  0  0  0
   10.9171   46.9049   32.9422 H   0  0  0  0  0  0  0  0  0  0  0  0
   11.1004   46.2879   34.4997 H   0  0  0  0  0  0  0  0  0  0  0  0
    8.5912   46.7797   33.6418 H   0  0  0  0  0  0  0  0  0  0  0  0
    8.6531   45.5642   34.9546 H   0  0  0  0  0  0  0  0  0  0  0  0
    4.8204   43.9962   33.4255 H   0  0  0  0  0  0  0  0  0  0  0  0
    5.8717   42.9517   32.4033 H   0  0  0  0  0  0  0  0  0  0  0  0
    4.5395   43.3459   35.9189 H   0  0  0  0  0  0  0  0  0  0  0  0
    6.1693   40.6378   32.9811 H   0  0  0  0  0  0  0  0  0  0  0  0
    4.0775   41.4311   37.4112 H   0  0  0  0  0  0  0  0  0  0  0  0
    5.7014   38.7385   34.4858 H   0  0  0  0  0  0  0  0  0  0  0  0
    4.6549   39.1274   36.6995 H   0  0  0  0  0  0  0  0  0  0  0  0
    9.8303   40.7391   31.7571 H   0  0  0  0  0  0  0  0  0  0  0  0
   11.3985   41.5454   31.4738 H   0  0  0  0  0  0  0  0  0  0  0  0
   11.6985   39.5091   30.3490 H   0  0  0  0  0  0  0  0  0  0  0  0
   10.1130   38.2590   32.6669 H   0  0  0  0  0  0  0  0  0  0  0  0
   13.6798   37.4627   31.2265 H   0  0  0  0  0  0  0  0  0  0  0  0
    8.8936   38.6892   30.8913 H   0  0  0  0  0  0  0  0  0  0  0  0
   11.2829   36.3060   32.4930 H   0  0  0  0  0  0  0  0  0  0  0  0
   11.8853   36.9592   29.7593 H   0  0  0  0  0  0  0  0  0  0  0  0
   12.3359   38.3599   34.7442 H   0  0  0  0  0  0  0  0  0  0  0  0
   16.7572   34.1793   32.4621 H   0  0  0  0  0  0  0  0  0  0  0  0
   15.3528   35.7356   37.5140 H   0  0  0  0  0  0  0  0  0  0  0  0
   16.6362   34.5318   37.1415 H   0  0  0  0  0  0  0  0  0  0  0  0
  1  2  2  0
  1  3  1  0
  3  4  1  0
  4  5  1  0
  6  1  1  0
  7  6  1  0
  6  8  1  0
  8  9  1  0
  9 10  1  0
  9 11  2  0
 10 12  1  0
 12 13  1  0
 13 14  2  0
 15 13  1  0
 14 16  1  0
 17 15  2  0
 16 18  2  0
 18 17  1  0
  4 19  2  0
  4 20  1  0
 21 20  1  0
 21 22  1  0
 22 23  1  0
 22 24  1  0
 23 25  1  0
 24 26  1  0
 24 27  1  0
 27 25  1  0
 25 28  1  0
 27 29  1  0
 30 28  1  0
 31 28  1  0
 32 30  2  0
 30 33  1  0
 34 31  2  0
 35 32  1  0
 33 36  2  0
 33 34  1  0
 37 35  2  0
 37 36  1  0
 36 38  1  0
  6 39  1  6
  7 40  1  0
  7 41  1  0
  8 42  1  0
  8 43  1  0
 12 44  1  0
 12 45  1  0
 14 46  1  0
 15 47  1  0
 16 48  1  0
 17 49  1  0
 18 50  1  0
 21 51  1  0
 21 52  1  0
 22 53  1  0
 24 54  1  0
 25 55  1  0
 26 56  1  0
 27 57  1  0
 29 58  1  0
 31 59  1  0
 35 60  1  0
 38 61  1  0
 38 62  1  0
M  CHG  1   5  -1
M  END
>  <EmbedRMS>  (227) 
0.08798753682362341

$$$$

     RDKit          3D

 62 65  0  0  0  0  0  0  0  0999 V2000
   10.2816   43.7747   33.8146 C   0  0  0  0  0  0  0  0  0  0  0  0
   11.4084   43.5880   34.3609 O   0  0  0  0  0  0  0  0  0  0  0  0
    9.3708   42.7295   33.6941 O   0  0  0  0  0  0  0  0  0  0  0  0
    9.8860   41.2339   34.2832 P   0  0  0  0  0  5  0  0  0  0  0  0
   10.3639   41.4714   35.8742 O   0  0  0  0  0  1  0  0  0  0  0  0
    9.9500   45.1157   33.2624 C   0  0  2  0  0  0  0  0  0  0  0  0
   11.0745   46.0328   33.4665 N   0  0  0  0  0  0  0  0  0  0  0  0
    8.6253   45.6752   33.8385 C   0  0  0  0  0  0  0  0  0  0  0  0
    8.6507   45.8916   35.3357 C   0  0  0  0  0  0  0  0  0  0  0  0
    8.0207   45.0332   36.2500 O   0  0  0  0  0  0  0  0  0  0  0  0
    9.2662   46.8913   35.7909 O   0  0  0  0  0  0  0  0  0  0  0  0
    7.0437   44.0446   35.9248 C   0  0  0  0  0  0  0  0  0  0  0  0
    5.7588   44.6859   35.4723 C   0  0  0  0  0  0  0  0  0  0  0  0
    5.1345   44.2720   34.2833 C   0  0  0  0  0  0  0  0  0  0  0  0
    5.1518   45.6797   36.2580 C   0  0  0  0  0  0  0  0  0  0  0  0
    3.9337   44.8617   33.8763 C   0  0  0  0  0  0  0  0  0  0  0  0
    3.9507   46.2666   35.8475 C   0  0  0  0  0  0  0  0  0  0  0  0
    3.3432   45.8594   34.6567 C   0  0  0  0  0  0  0  0  0  0  0  0
    8.8077   40.1918   34.2073 O   0  0  0  0  0  0  0  0  0  0  0  0
   11.2387   40.7888   33.3699 O   0  0  0  0  0  0  0  0  0  0  0  0
   10.9198   40.6902   31.9961 C   0  0  0  0  0  0  0  0  0  0  0  0
   11.5179   39.3822   31.4409 C   0  0  0  0  0  0  0  0  0  0  0  0
   12.7498   39.0890   32.0752 O   0  0  0  0  0  0  0  0  0  0  0  0
   10.6037   38.1899   31.6659 C   0  0  0  0  0  0  0  0  0  0  0  0
   12.9402   37.6831   32.0275 C   0  0  0  0  0  0  0  0  0  0  0  0
    9.6377   38.0785   30.6475 O   0  0  0  0  0  0  0  0  0  0  0  0
   11.5803   37.0202   31.6936 C   0  0  0  0  0  0  0  0  0  0  0  0
   13.4902   37.2176   33.3237 N   0  0  0  0  0  0  0  0  0  0  0  0
   11.6117   36.3192   30.4680 O   0  0  0  0  0  0  0  0  0  0  0  0
   14.4759   36.3271   33.5731 C   0  0  0  0  0  0  0  0  0  0  0  0
   13.1175   37.6317   34.5687 C   0  0  0  0  0  0  0  0  0  0  0  0
   15.2064   35.6141   32.6742 N   0  0  0  0  0  0  0  0  0  0  0  0
   14.6729   36.2274   34.9184 C   0  0  0  0  0  0  0  0  0  0  0  0
   13.8221   37.0457   35.5783 N   0  0  0  0  0  0  0  0  0  0  0  0
   16.1637   34.7596   33.1549 C   0  0  0  0  0  0  0  0  0  0  0  0
   15.6514   35.3493   35.4133 C   0  0  0  0  0  0  0  0  0  0  0  0
   16.3791   34.6312   34.5044 N   0  0  0  0  0  0  0  0  0  0  0  0
   15.9001   35.1935   36.8091 N   0  0  0  0  0  0  0  0  0  0  0  0
    9.8104   44.9880   32.1665 H   0  0  0  0  0  0  0  0  0  0  0  0
   11.2607   46.1674   34.4862 H   0  0  0  0  0  0  0  0  0  0  0  0
   10.8291   46.9658   33.0624 H   0  0  0  0  0  0  0  0  0  0  0  0
    8.4071   46.6493   33.3498 H   0  0  0  0  0  0  0  0  0  0  0  0
    7.7948   45.0036   33.5467 H   0  0  0  0  0  0  0  0  0  0  0  0
    7.4429   43.3420   35.1677 H   0  0  0  0  0  0  0  0  0  0  0  0
    6.8325   43.4482   36.8368 H   0  0  0  0  0  0  0  0  0  0  0  0
    5.5777   43.4972   33.6698 H   0  0  0  0  0  0  0  0  0  0  0  0
    5.6097   46.0005   37.1855 H   0  0  0  0  0  0  0  0  0  0  0  0
    3.4598   44.5437   32.9567 H   0  0  0  0  0  0  0  0  0  0  0  0
    3.4898   47.0356   36.4539 H   0  0  0  0  0  0  0  0  0  0  0  0
    2.4134   46.3143   34.3405 H   0  0  0  0  0  0  0  0  0  0  0  0
    9.8321   40.7400   31.7553 H   0  0  0  0  0  0  0  0  0  0  0  0
   11.4016   41.5452   31.4754 H   0  0  0  0  0  0  0  0  0  0  0  0
   11.6991   39.5090   30.3486 H   0  0  0  0  0  0  0  0  0  0  0  0
   10.1133   38.2590   32.6664 H   0  0  0  0  0  0  0  0  0  0  0  0
   13.6801   37.4622   31.2265 H   0  0  0  0  0  0  0  0  0  0  0  0
    8.8955   38.6912   30.8891 H   0  0  0  0  0  0  0  0  0  0  0  0
   11.2830   36.3059   32.4929 H   0  0  0  0  0  0  0  0  0  0  0  0
   11.8858   36.9588   29.7592 H   0  0  0  0  0  0  0  0  0  0  0  0
   12.3360   38.3599   34.7440 H   0  0  0  0  0  0  0  0  0  0  0  0
   16.7573   34.1792   32.4622 H   0  0  0  0  0  0  0  0  0  0  0  0
   15.3528   35.7357   37.5140 H   0  0  0  0  0  0  0  0  0  0  0  0
   16.6362   34.5318   37.1416 H   0  0  0  0  0  0  0  0  0  0  0  0
  1  2  2  0
  1  3  1  0
  3  4  1  0
  4  5  1  0
  6  1  1  0
  7  6  1  0
  6  8  1  0
  8  9  1  0
  9 10  1  0
  9 11  2  0
 10 12  1  0
 12 13  1  0
 13 14  2  0
 15 13  1  0
 14 16  1  0
 17 15  2  0
 16 18  2  0
 18 17  1  0
  4 19  2  0
  4 20  1  0
 21 20  1  0
 21 22  1  0
 22 23  1  0
 22 24  1  0
 23 25  1  0
 24 26  1  0
 24 27  1  0
 27 25  1  0
 25 28  1  0
 27 29  1  0
 30 28  1  0
 31 28  1  0
 32 30  2  0
 30 33  1  0
 34 31  2  0
 35 32  1  0
 33 36  2  0
 33 34  1  0
 37 35  2  0
 37 36  1  0
 36 38  1  0
  6 39  1  6
  7 40  1  0
  7 41  1  0
  8 42  1  0
  8 43  1  0
 12 44  1  0
 12 45  1  0
 14 46  1  0
 15 47  1  0
 16 48  1  0
 17 49  1  0
 18 50  1  0
 21 51  1  0
 21 52  1  0
 22 53  1  0
 24 54  1  0
 25 55  1  0
 26 56  1  0
 27 57  1  0
 29 58  1  0
 31 59  1  0
 35 60  1  0
 38 61  1  0
 38 62  1  0
M  CHG  1   5  -1
M  END
>  <EmbedRMS>  (228) 
0.08867287805691174

$$$$

     RDKit          3D

 62 65  0  0  0  0  0  0  0  0999 V2000
   10.2846   43.7734   33.8089 C   0  0  0  0  0  0  0  0  0  0  0  0
   11.4111   43.5878   34.3561 O   0  0  0  0  0  0  0  0  0  0  0  0
    9.3662   42.7321   33.7039 O   0  0  0  0  0  0  0  0  0  0  0  0
    9.8848   41.2343   34.2851 P   0  0  0  0  0  5  0  0  0  0  0  0
   10.3651   41.4664   35.8754 O   0  0  0  0  0  1  0  0  0  0  0  0
    9.9586   45.1102   33.2425 C   0  0  2  0  0  0  0  0  0  0  0  0
   11.0675   46.0375   33.4826 N   0  0  0  0  0  0  0  0  0  0  0  0
    8.6170   45.6579   33.7817 C   0  0  0  0  0  0  0  0  0  0  0  0
    8.6482   45.9341   35.2559 C   0  0  0  0  0  0  0  0  0  0  0  0
    8.7004   44.8663   36.1588 O   0  0  0  0  0  0  0  0  0  0  0  0
    8.6530   47.1263   35.6678 O   0  0  0  0  0  0  0  0  0  0  0  0
    8.9028   45.0376   37.5596 C   0  0  0  0  0  0  0  0  0  0  0  0
   10.3086   45.5021   37.8293 C   0  0  0  0  0  0  0  0  0  0  0  0
   11.3877   44.6292   37.6181 C   0  0  0  0  0  0  0  0  0  0  0  0
   10.5604   46.8206   38.2441 C   0  0  0  0  0  0  0  0  0  0  0  0
   12.6994   45.0667   37.8249 C   0  0  0  0  0  0  0  0  0  0  0  0
   11.8737   47.2543   38.4514 C   0  0  0  0  0  0  0  0  0  0  0  0
   12.9423   46.3782   38.2418 C   0  0  0  0  0  0  0  0  0  0  0  0
    8.8074   40.1914   34.2080 O   0  0  0  0  0  0  0  0  0  0  0  0
   11.2367   40.7914   33.3689 O   0  0  0  0  0  0  0  0  0  0  0  0
   10.9151   40.6900   31.9960 C   0  0  0  0  0  0  0  0  0  0  0  0
   11.5268   39.3900   31.4376 C   0  0  0  0  0  0  0  0  0  0  0  0
   12.7506   39.0918   32.0841 O   0  0  0  0  0  0  0  0  0  0  0  0
   10.6121   38.1916   31.6453 C   0  0  0  0  0  0  0  0  0  0  0  0
   12.9428   37.6854   32.0296 C   0  0  0  0  0  0  0  0  0  0  0  0
    9.6069   38.0858   30.6603 O   0  0  0  0  0  0  0  0  0  0  0  0
   11.5845   37.0187   31.6880 C   0  0  0  0  0  0  0  0  0  0  0  0
   13.4899   37.2164   33.3250 N   0  0  0  0  0  0  0  0  0  0  0  0
   11.6202   36.3063   30.4693 O   0  0  0  0  0  0  0  0  0  0  0  0
   14.4758   36.3264   33.5739 C   0  0  0  0  0  0  0  0  0  0  0  0
   13.1176   37.6308   34.5699 C   0  0  0  0  0  0  0  0  0  0  0  0
   15.2065   35.6139   32.6746 N   0  0  0  0  0  0  0  0  0  0  0  0
   14.6731   36.2268   34.9191 C   0  0  0  0  0  0  0  0  0  0  0  0
   13.8224   37.0450   35.5792 N   0  0  0  0  0  0  0  0  0  0  0  0
   16.1640   34.7596   33.1551 C   0  0  0  0  0  0  0  0  0  0  0  0
   15.6517   35.3489   35.4136 C   0  0  0  0  0  0  0  0  0  0  0  0
   16.3795   34.6310   34.5046 N   0  0  0  0  0  0  0  0  0  0  0  0
   15.9006   35.1931   36.8094 N   0  0  0  0  0  0  0  0  0  0  0  0
    9.8518   44.9779   32.1435 H   0  0  0  0  0  0  0  0  0  0  0  0
   11.1700   46.2228   34.5073 H   0  0  0  0  0  0  0  0  0  0  0  0
   10.8462   46.9500   33.0214 H   0  0  0  0  0  0  0  0  0  0  0  0
    8.3627   46.5926   33.2354 H   0  0  0  0  0  0  0  0  0  0  0  0
    7.8030   44.9312   33.5713 H   0  0  0  0  0  0  0  0  0  0  0  0
    8.7407   44.0615   38.0638 H   0  0  0  0  0  0  0  0  0  0  0  0
    8.1517   45.7491   37.9674 H   0  0  0  0  0  0  0  0  0  0  0  0
   11.2127   43.6131   37.2905 H   0  0  0  0  0  0  0  0  0  0  0  0
    9.7432   47.5134   38.4016 H   0  0  0  0  0  0  0  0  0  0  0  0
   13.5274   44.3896   37.6596 H   0  0  0  0  0  0  0  0  0  0  0  0
   12.0632   48.2709   38.7709 H   0  0  0  0  0  0  0  0  0  0  0  0
   13.9582   46.7161   38.4006 H   0  0  0  0  0  0  0  0  0  0  0  0
   11.3816   41.5528   31.4742 H   0  0  0  0  0  0  0  0  0  0  0  0
    9.8249   40.7191   31.7591 H   0  0  0  0  0  0  0  0  0  0  0  0
   11.7317   39.5340   30.3522 H   0  0  0  0  0  0  0  0  0  0  0  0
   10.1213   38.2682   32.6413 H   0  0  0  0  0  0  0  0  0  0  0  0
   13.6882   37.4711   31.2319 H   0  0  0  0  0  0  0  0  0  0  0  0
   10.0257   38.1752   29.7656 H   0  0  0  0  0  0  0  0  0  0  0  0
   11.2796   36.3124   32.4916 H   0  0  0  0  0  0  0  0  0  0  0  0
   11.9872   36.9100   29.7715 H   0  0  0  0  0  0  0  0  0  0  0  0
   12.3366   38.3597   34.7454 H   0  0  0  0  0  0  0  0  0  0  0  0
   16.7576   34.1795   32.4622 H   0  0  0  0  0  0  0  0  0  0  0  0
   15.3532   35.7351   37.5143 H   0  0  0  0  0  0  0  0  0  0  0  0
   16.6368   34.5316   37.1418 H   0  0  0  0  0  0  0  0  0  0  0  0
  1  2  2  0
  1  3  1  0
  3  4  1  0
  4  5  1  0
  6  1  1  0
  7  6  1  0
  6  8  1  0
  8  9  1  0
  9 10  1  0
  9 11  2  0
 10 12  1  0
 12 13  1  0
 13 14  2  0
 15 13  1  0
 14 16  1  0
 17 15  2  0
 16 18  2  0
 18 17  1  0
  4 19  2  0
  4 20  1  0
 21 20  1  0
 21 22  1  0
 22 23  1  0
 22 24  1  0
 23 25  1  0
 24 26  1  0
 24 27  1  0
 27 25  1  0
 25 28  1  0
 27 29  1  0
 30 28  1  0
 31 28  1  0
 32 30  2  0
 30 33  1  0
 34 31  2  0
 35 32  1  0
 33 36  2  0
 33 34  1  0
 37 35  2  0
 37 36  1  0
 36 38  1  0
  6 39  1  6
  7 40  1  0
  7 41  1  0
  8 42  1  0
  8 43  1  0
 12 44  1  0
 12 45  1  0
 14 46  1  0
 15 47  1  0
 16 48  1  0
 17 49  1  0
 18 50  1  0
 21 51  1  0
 21 52  1  0
 22 53  1  0
 24 54  1  0
 25 55  1  0
 26 56  1  0
 27 57  1  0
 29 58  1  0
 31 59  1  0
 35 60  1  0
 38 61  1  0
 38 62  1  0
M  CHG  1   5  -1
M  END
>  <EmbedRMS>  (229) 
0.08711632702293011

$$$$

     RDKit          3D

 62 65  0  0  0  0  0  0  0  0999 V2000
   10.2862   43.7710   33.8097 C   0  0  0  0  0  0  0  0  0  0  0  0
   11.4100   43.5817   34.3615 O   0  0  0  0  0  0  0  0  0  0  0  0
    9.3668   42.7309   33.7018 O   0  0  0  0  0  0  0  0  0  0  0  0
    9.8845   41.2330   34.2841 P   0  0  0  0  0  5  0  0  0  0  0  0
   10.3656   41.4677   35.8746 O   0  0  0  0  0  1  0  0  0  0  0  0
    9.9605   45.1126   33.2475 C   0  0  2  0  0  0  0  0  0  0  0  0
   11.0657   46.0480   33.4748 N   0  0  0  0  0  0  0  0  0  0  0  0
    8.6648   45.6567   33.8723 C   0  0  0  0  0  0  0  0  0  0  0  0
    8.2803   46.9673   33.2590 C   0  0  0  0  0  0  0  0  0  0  0  0
    8.7608   48.1542   33.8187 O   0  0  0  0  0  0  0  0  0  0  0  0
    7.5639   46.9881   32.2210 O   0  0  0  0  0  0  0  0  0  0  0  0
    8.4767   49.4344   33.2664 C   0  0  0  0  0  0  0  0  0  0  0  0
    9.1612   50.4879   34.0864 C   0  0  0  0  0  0  0  0  0  0  0  0
   10.4993   50.8265   33.8261 C   0  0  0  0  0  0  0  0  0  0  0  0
    8.4940   51.0939   35.1638 C   0  0  0  0  0  0  0  0  0  0  0  0
   11.1503   51.7803   34.6150 C   0  0  0  0  0  0  0  0  0  0  0  0
    9.1485   52.0474   35.9503 C   0  0  0  0  0  0  0  0  0  0  0  0
   10.4747   52.3921   35.6746 C   0  0  0  0  0  0  0  0  0  0  0  0
    8.8069   40.1904   34.2081 O   0  0  0  0  0  0  0  0  0  0  0  0
   11.2365   40.7896   33.3680 O   0  0  0  0  0  0  0  0  0  0  0  0
   10.9151   40.6881   31.9949 C   0  0  0  0  0  0  0  0  0  0  0  0
   11.5260   39.3870   31.4364 C   0  0  0  0  0  0  0  0  0  0  0  0
   12.7491   39.0893   32.0819 O   0  0  0  0  0  0  0  0  0  0  0  0
   10.6123   38.1892   31.6461 C   0  0  0  0  0  0  0  0  0  0  0  0
   12.9373   37.6827   32.0301 C   0  0  0  0  0  0  0  0  0  0  0  0
    9.6150   38.0838   30.6538 O   0  0  0  0  0  0  0  0  0  0  0  0
   11.5793   37.0136   31.7014 C   0  0  0  0  0  0  0  0  0  0  0  0
   13.4906   37.2170   33.3242 N   0  0  0  0  0  0  0  0  0  0  0  0
   11.6217   36.3252   30.4725 O   0  0  0  0  0  0  0  0  0  0  0  0
   14.4763   36.3266   33.5731 C   0  0  0  0  0  0  0  0  0  0  0  0
   13.1182   37.6308   34.5694 C   0  0  0  0  0  0  0  0  0  0  0  0
   15.2065   35.6137   32.6740 N   0  0  0  0  0  0  0  0  0  0  0  0
   14.6735   36.2270   34.9185 C   0  0  0  0  0  0  0  0  0  0  0  0
   13.8229   37.0451   35.5787 N   0  0  0  0  0  0  0  0  0  0  0  0
   16.1639   34.7593   33.1547 C   0  0  0  0  0  0  0  0  0  0  0  0
   15.6519   35.3489   35.4132 C   0  0  0  0  0  0  0  0  0  0  0  0
   16.3794   34.6308   34.5042 N   0  0  0  0  0  0  0  0  0  0  0  0
   15.9006   35.1931   36.8090 N   0  0  0  0  0  0  0  0  0  0  0  0
    9.8090   44.9959   32.1514 H   0  0  0  0  0  0  0  0  0  0  0  0
   11.9222   45.7017   32.9832 H   0  0  0  0  0  0  0  0  0  0  0  0
   11.2748   46.1196   34.4982 H   0  0  0  0  0  0  0  0  0  0  0  0
    7.8350   44.9324   33.7173 H   0  0  0  0  0  0  0  0  0  0  0  0
    8.7969   45.7907   34.9684 H   0  0  0  0  0  0  0  0  0  0  0  0
    8.8378   49.4780   32.2153 H   0  0  0  0  0  0  0  0  0  0  0  0
    7.3776   49.6043   33.2594 H   0  0  0  0  0  0  0  0  0  0  0  0
   11.0371   50.3519   33.0145 H   0  0  0  0  0  0  0  0  0  0  0  0
    7.4697   50.8284   35.3947 H   0  0  0  0  0  0  0  0  0  0  0  0
   12.1798   52.0421   34.4074 H   0  0  0  0  0  0  0  0  0  0  0  0
    8.6288   52.5160   36.7760 H   0  0  0  0  0  0  0  0  0  0  0  0
   10.9803   53.1291   36.2852 H   0  0  0  0  0  0  0  0  0  0  0  0
   11.3824   41.5503   31.4729 H   0  0  0  0  0  0  0  0  0  0  0  0
    9.8250   40.7179   31.7578 H   0  0  0  0  0  0  0  0  0  0  0  0
   11.7290   39.5287   30.3503 H   0  0  0  0  0  0  0  0  0  0  0  0
   10.1139   38.2717   32.6379 H   0  0  0  0  0  0  0  0  0  0  0  0
   13.6726   37.4637   31.2240 H   0  0  0  0  0  0  0  0  0  0  0  0
   10.0535   38.1084   29.7638 H   0  0  0  0  0  0  0  0  0  0  0  0
   11.2646   36.3134   32.5107 H   0  0  0  0  0  0  0  0  0  0  0  0
   12.1550   35.5032   30.6315 H   0  0  0  0  0  0  0  0  0  0  0  0
   12.3362   38.3586   34.7450 H   0  0  0  0  0  0  0  0  0  0  0  0
   16.7573   34.1788   32.4619 H   0  0  0  0  0  0  0  0  0  0  0  0
   16.6366   34.5314   37.1415 H   0  0  0  0  0  0  0  0  0  0  0  0
   15.3533   35.7353   37.5139 H   0  0  0  0  0  0  0  0  0  0  0  0
  1  2  2  0
  1  3  1  0
  3  4  1  0
  4  5  1  0
  6  1  1  0
  7  6  1  0
  6  8  1  0
  8  9  1  0
  9 10  1  0
  9 11  2  0
 10 12  1  0
 12 13  1  0
 13 14  2  0
 15 13  1  0
 14 16  1  0
 17 15  2  0
 16 18  2  0
 18 17  1  0
  4 19  2  0
  4 20  1  0
 21 20  1  0
 21 22  1  0
 22 23  1  0
 22 24  1  0
 23 25  1  0
 24 26  1  0
 24 27  1  0
 27 25  1  0
 25 28  1  0
 27 29  1  0
 30 28  1  0
 31 28  1  0
 32 30  2  0
 30 33  1  0
 34 31  2  0
 35 32  1  0
 33 36  2  0
 33 34  1  0
 37 35  2  0
 37 36  1  0
 36 38  1  0
  6 39  1  6
  7 40  1  0
  7 41  1  0
  8 42  1  0
  8 43  1  0
 12 44  1  0
 12 45  1  0
 14 46  1  0
 15 47  1  0
 16 48  1  0
 17 49  1  0
 18 50  1  0
 21 51  1  0
 21 52  1  0
 22 53  1  0
 24 54  1  0
 25 55  1  0
 26 56  1  0
 27 57  1  0
 29 58  1  0
 31 59  1  0
 35 60  1  0
 38 61  1  0
 38 62  1  0
M  CHG  1   5  -1
M  END
>  <EmbedRMS>  (230) 
0.08844045594291952

$$$$

     RDKit          3D

 62 65  0  0  0  0  0  0  0  0999 V2000
   10.2863   43.7709   33.8097 C   0  0  0  0  0  0  0  0  0  0  0  0
   11.4100   43.5817   34.3616 O   0  0  0  0  0  0  0  0  0  0  0  0
    9.3671   42.7306   33.7015 O   0  0  0  0  0  0  0  0  0  0  0  0
    9.8851   41.2327   34.2837 P   0  0  0  0  0  5  0  0  0  0  0  0
   10.3651   41.4675   35.8745 O   0  0  0  0  0  1  0  0  0  0  0  0
    9.9604   45.1126   33.2479 C   0  0  2  0  0  0  0  0  0  0  0  0
   11.0659   46.0477   33.4745 N   0  0  0  0  0  0  0  0  0  0  0  0
    8.6653   45.6569   33.8739 C   0  0  0  0  0  0  0  0  0  0  0  0
    8.2808   46.9679   33.2614 C   0  0  0  0  0  0  0  0  0  0  0  0
    8.7729   48.1537   33.8132 O   0  0  0  0  0  0  0  0  0  0  0  0
    7.5539   46.9898   32.2307 O   0  0  0  0  0  0  0  0  0  0  0  0
    8.4896   49.4341   33.2609 C   0  0  0  0  0  0  0  0  0  0  0  0
    9.1914   50.4855   34.0688 C   0  0  0  0  0  0  0  0  0  0  0  0
    8.5436   51.0958   35.1556 C   0  0  0  0  0  0  0  0  0  0  0  0
   10.5270   50.8175   33.7876 C   0  0  0  0  0  0  0  0  0  0  0  0
    9.2146   52.0471   35.9308 C   0  0  0  0  0  0  0  0  0  0  0  0
   11.1944   51.7691   34.5653 C   0  0  0  0  0  0  0  0  0  0  0  0
   10.5380   52.3853   35.6345 C   0  0  0  0  0  0  0  0  0  0  0  0
    8.8075   40.1901   34.2071 O   0  0  0  0  0  0  0  0  0  0  0  0
   11.2381   40.7896   33.3686 O   0  0  0  0  0  0  0  0  0  0  0  0
   10.9194   40.6894   31.9947 C   0  0  0  0  0  0  0  0  0  0  0  0
   11.5171   39.3800   31.4396 C   0  0  0  0  0  0  0  0  0  0  0  0
   12.7479   39.0861   32.0733 O   0  0  0  0  0  0  0  0  0  0  0  0
   10.6031   38.1891   31.6666 C   0  0  0  0  0  0  0  0  0  0  0  0
   12.9335   37.6796   32.0279 C   0  0  0  0  0  0  0  0  0  0  0  0
    9.6397   38.0776   30.6456 O   0  0  0  0  0  0  0  0  0  0  0  0
   11.5739   37.0153   31.7057 C   0  0  0  0  0  0  0  0  0  0  0  0
   13.4903   37.2178   33.3231 N   0  0  0  0  0  0  0  0  0  0  0  0
   11.6211   36.3376   30.4694 O   0  0  0  0  0  0  0  0  0  0  0  0
   14.4761   36.3273   33.5725 C   0  0  0  0  0  0  0  0  0  0  0  0
   13.1179   37.6317   34.5684 C   0  0  0  0  0  0  0  0  0  0  0  0
   15.2063   35.6139   32.6737 N   0  0  0  0  0  0  0  0  0  0  0  0
   14.6734   36.2277   34.9180 C   0  0  0  0  0  0  0  0  0  0  0  0
   13.8225   37.0459   35.5779 N   0  0  0  0  0  0  0  0  0  0  0  0
   16.1636   34.7594   33.1546 C   0  0  0  0  0  0  0  0  0  0  0  0
   15.6515   35.3494   35.4129 C   0  0  0  0  0  0  0  0  0  0  0  0
   16.3791   34.6311   34.5041 N   0  0  0  0  0  0  0  0  0  0  0  0
   15.9001   35.1935   36.8088 N   0  0  0  0  0  0  0  0  0  0  0  0
    9.8079   44.9963   32.1519 H   0  0  0  0  0  0  0  0  0  0  0  0
   11.9221   45.7013   32.9824 H   0  0  0  0  0  0  0  0  0  0  0  0
   11.2758   46.1193   34.4977 H   0  0  0  0  0  0  0  0  0  0  0  0
    8.7984   45.7907   34.9699 H   0  0  0  0  0  0  0  0  0  0  0  0
    7.8353   44.9328   33.7195 H   0  0  0  0  0  0  0  0  0  0  0  0
    7.3916   49.6107   33.2679 H   0  0  0  0  0  0  0  0  0  0  0  0
    8.8370   49.4724   32.2050 H   0  0  0  0  0  0  0  0  0  0  0  0
    7.5218   50.8353   35.4024 H   0  0  0  0  0  0  0  0  0  0  0  0
   11.0501   50.3394   32.9685 H   0  0  0  0  0  0  0  0  0  0  0  0
    8.7098   52.5190   36.7639 H   0  0  0  0  0  0  0  0  0  0  0  0
   12.2218   52.0258   34.3417 H   0  0  0  0  0  0  0  0  0  0  0  0
   11.0563   53.1204   36.2364 H   0  0  0  0  0  0  0  0  0  0  0  0
    9.8317   40.7398   31.7544 H   0  0  0  0  0  0  0  0  0  0  0  0
   11.4014   41.5436   31.4731 H   0  0  0  0  0  0  0  0  0  0  0  0
   11.6982   39.5042   30.3469 H   0  0  0  0  0  0  0  0  0  0  0  0
   10.1090   38.2631   32.6649 H   0  0  0  0  0  0  0  0  0  0  0  0
   13.6656   37.4540   31.2207 H   0  0  0  0  0  0  0  0  0  0  0  0
    8.8965   38.6899   30.8852 H   0  0  0  0  0  0  0  0  0  0  0  0
   11.2846   36.3060   32.5175 H   0  0  0  0  0  0  0  0  0  0  0  0
   10.8524   35.7094   30.4590 H   0  0  0  0  0  0  0  0  0  0  0  0
   12.3353   38.3588   34.7439 H   0  0  0  0  0  0  0  0  0  0  0  0
   16.7570   34.1788   32.4619 H   0  0  0  0  0  0  0  0  0  0  0  0
   15.3529   35.7359   37.5136 H   0  0  0  0  0  0  0  0  0  0  0  0
   16.6360   34.5317   37.1414 H   0  0  0  0  0  0  0  0  0  0  0  0
  1  2  2  0
  1  3  1  0
  3  4  1  0
  4  5  1  0
  6  1  1  0
  7  6  1  0
  6  8  1  0
  8  9  1  0
  9 10  1  0
  9 11  2  0
 10 12  1  0
 12 13  1  0
 13 14  2  0
 15 13  1  0
 14 16  1  0
 17 15  2  0
 16 18  2  0
 18 17  1  0
  4 19  2  0
  4 20  1  0
 21 20  1  0
 21 22  1  0
 22 23  1  0
 22 24  1  0
 23 25  1  0
 24 26  1  0
 24 27  1  0
 27 25  1  0
 25 28  1  0
 27 29  1  0
 30 28  1  0
 31 28  1  0
 32 30  2  0
 30 33  1  0
 34 31  2  0
 35 32  1  0
 33 36  2  0
 33 34  1  0
 37 35  2  0
 37 36  1  0
 36 38  1  0
  6 39  1  6
  7 40  1  0
  7 41  1  0
  8 42  1  0
  8 43  1  0
 12 44  1  0
 12 45  1  0
 14 46  1  0
 15 47  1  0
 16 48  1  0
 17 49  1  0
 18 50  1  0
 21 51  1  0
 21 52  1  0
 22 53  1  0
 24 54  1  0
 25 55  1  0
 26 56  1  0
 27 57  1  0
 29 58  1  0
 31 59  1  0
 35 60  1  0
 38 61  1  0
 38 62  1  0
M  CHG  1   5  -1
M  END
>  <EmbedRMS>  (231) 
0.08995917986318601

$$$$

     RDKit          3D

 62 65  0  0  0  0  0  0  0  0999 V2000
   10.2828   43.7754   33.8077 C   0  0  0  0  0  0  0  0  0  0  0  0
   11.4085   43.5914   34.3577 O   0  0  0  0  0  0  0  0  0  0  0  0
    9.3665   42.7320   33.7015 O   0  0  0  0  0  0  0  0  0  0  0  0
    9.8862   41.2346   34.2833 P   0  0  0  0  0  5  0  0  0  0  0  0
   10.3677   41.4692   35.8736 O   0  0  0  0  0  1  0  0  0  0  0  0
    9.9538   45.1113   33.2431 C   0  0  2  0  0  0  0  0  0  0  0  0
   11.0723   46.0271   33.4848 N   0  0  0  0  0  0  0  0  0  0  0  0
    8.6388   45.6435   33.8518 C   0  0  0  0  0  0  0  0  0  0  0  0
    8.2429   46.9447   33.2282 C   0  0  0  0  0  0  0  0  0  0  0  0
    7.7895   46.9603   31.9049 O   0  0  0  0  0  0  0  0  0  0  0  0
    8.3615   48.0165   33.8826 O   0  0  0  0  0  0  0  0  0  0  0  0
    7.6064   48.1607   31.1587 C   0  0  0  0  0  0  0  0  0  0  0  0
    8.9400   48.7824   30.8445 C   0  0  0  0  0  0  0  0  0  0  0  0
    9.8516   48.1029   30.0200 C   0  0  0  0  0  0  0  0  0  0  0  0
    9.3032   50.0206   31.4000 C   0  0  0  0  0  0  0  0  0  0  0  0
   11.1064   48.6578   29.7505 C   0  0  0  0  0  0  0  0  0  0  0  0
   10.5588   50.5726   31.1271 C   0  0  0  0  0  0  0  0  0  0  0  0
   11.4595   49.8920   30.3030 C   0  0  0  0  0  0  0  0  0  0  0  0
    8.8085   40.1917   34.2083 O   0  0  0  0  0  0  0  0  0  0  0  0
   11.2373   40.7915   33.3654 O   0  0  0  0  0  0  0  0  0  0  0  0
   10.9133   40.6845   31.9929 C   0  0  0  0  0  0  0  0  0  0  0  0
   11.5174   39.3773   31.4395 C   0  0  0  0  0  0  0  0  0  0  0  0
   12.7476   39.0870   32.0757 O   0  0  0  0  0  0  0  0  0  0  0  0
   10.6069   38.1851   31.6657 C   0  0  0  0  0  0  0  0  0  0  0  0
   12.9372   37.6812   32.0290 C   0  0  0  0  0  0  0  0  0  0  0  0
    9.6403   38.0882   30.6475 O   0  0  0  0  0  0  0  0  0  0  0  0
   11.5789   37.0134   31.7045 C   0  0  0  0  0  0  0  0  0  0  0  0
   13.4915   37.2182   33.3239 N   0  0  0  0  0  0  0  0  0  0  0  0
   11.6125   36.3389   30.4674 O   0  0  0  0  0  0  0  0  0  0  0  0
   14.4766   36.3272   33.5730 C   0  0  0  0  0  0  0  0  0  0  0  0
   13.1184   37.6317   34.5690 C   0  0  0  0  0  0  0  0  0  0  0  0
   15.2066   35.6139   32.6740 N   0  0  0  0  0  0  0  0  0  0  0  0
   14.6735   36.2273   34.9184 C   0  0  0  0  0  0  0  0  0  0  0  0
   13.8227   37.0455   35.5785 N   0  0  0  0  0  0  0  0  0  0  0  0
   16.1637   34.7593   33.1548 C   0  0  0  0  0  0  0  0  0  0  0  0
   15.6517   35.3491   35.4132 C   0  0  0  0  0  0  0  0  0  0  0  0
   16.3792   34.6308   34.5043 N   0  0  0  0  0  0  0  0  0  0  0  0
   15.9004   35.1932   36.8090 N   0  0  0  0  0  0  0  0  0  0  0  0
    9.8230   44.9845   32.1450 H   0  0  0  0  0  0  0  0  0  0  0  0
   11.0723   46.3302   34.4867 H   0  0  0  0  0  0  0  0  0  0  0  0
   10.9454   46.8826   32.8965 H   0  0  0  0  0  0  0  0  0  0  0  0
    7.8194   44.9143   33.6720 H   0  0  0  0  0  0  0  0  0  0  0  0
    8.7465   45.7661   34.9525 H   0  0  0  0  0  0  0  0  0  0  0  0
    7.0916   47.9129   30.2066 H   0  0  0  0  0  0  0  0  0  0  0  0
    6.9484   48.8597   31.7203 H   0  0  0  0  0  0  0  0  0  0  0  0
    9.5920   47.1419   29.5932 H   0  0  0  0  0  0  0  0  0  0  0  0
    8.6191   50.5555   32.0470 H   0  0  0  0  0  0  0  0  0  0  0  0
   11.8060   48.1296   29.1157 H   0  0  0  0  0  0  0  0  0  0  0  0
   10.8349   51.5267   31.5572 H   0  0  0  0  0  0  0  0  0  0  0  0
   12.4316   50.3199   30.0945 H   0  0  0  0  0  0  0  0  0  0  0  0
    9.8230   40.7186   31.7573 H   0  0  0  0  0  0  0  0  0  0  0  0
   11.3842   41.5415   31.4656 H   0  0  0  0  0  0  0  0  0  0  0  0
   11.7007   39.5017   30.3471 H   0  0  0  0  0  0  0  0  0  0  0  0
   10.1097   38.2752   32.6606 H   0  0  0  0  0  0  0  0  0  0  0  0
   13.6713   37.4593   31.2227 H   0  0  0  0  0  0  0  0  0  0  0  0
    9.0033   37.3835   30.9351 H   0  0  0  0  0  0  0  0  0  0  0  0
   11.2706   36.3048   32.5088 H   0  0  0  0  0  0  0  0  0  0  0  0
   12.1444   35.5137   30.6141 H   0  0  0  0  0  0  0  0  0  0  0  0
   12.3362   38.3592   34.7445 H   0  0  0  0  0  0  0  0  0  0  0  0
   16.7571   34.1787   32.4620 H   0  0  0  0  0  0  0  0  0  0  0  0
   16.6363   34.5314   37.1415 H   0  0  0  0  0  0  0  0  0  0  0  0
   15.3532   35.7355   37.5139 H   0  0  0  0  0  0  0  0  0  0  0  0
  1  2  2  0
  1  3  1  0
  3  4  1  0
  4  5  1  0
  6  1  1  0
  7  6  1  0
  6  8  1  0
  8  9  1  0
  9 10  1  0
  9 11  2  0
 10 12  1  0
 12 13  1  0
 13 14  2  0
 15 13  1  0
 14 16  1  0
 17 15  2  0
 16 18  2  0
 18 17  1  0
  4 19  2  0
  4 20  1  0
 21 20  1  0
 21 22  1  0
 22 23  1  0
 22 24  1  0
 23 25  1  0
 24 26  1  0
 24 27  1  0
 27 25  1  0
 25 28  1  0
 27 29  1  0
 30 28  1  0
 31 28  1  0
 32 30  2  0
 30 33  1  0
 34 31  2  0
 35 32  1  0
 33 36  2  0
 33 34  1  0
 37 35  2  0
 37 36  1  0
 36 38  1  0
  6 39  1  6
  7 40  1  0
  7 41  1  0
  8 42  1  0
  8 43  1  0
 12 44  1  0
 12 45  1  0
 14 46  1  0
 15 47  1  0
 16 48  1  0
 17 49  1  0
 18 50  1  0
 21 51  1  0
 21 52  1  0
 22 53  1  0
 24 54  1  0
 25 55  1  0
 26 56  1  0
 27 57  1  0
 29 58  1  0
 31 59  1  0
 35 60  1  0
 38 61  1  0
 38 62  1  0
M  CHG  1   5  -1
M  END
>  <EmbedRMS>  (232) 
0.0885257233535966

$$$$

     RDKit          3D

 62 65  0  0  0  0  0  0  0  0999 V2000
   10.2862   43.7709   33.8097 C   0  0  0  0  0  0  0  0  0  0  0  0
   11.4100   43.5817   34.3614 O   0  0  0  0  0  0  0  0  0  0  0  0
    9.3667   42.7309   33.7018 O   0  0  0  0  0  0  0  0  0  0  0  0
    9.8848   41.2328   34.2832 P   0  0  0  0  0  5  0  0  0  0  0  0
   10.3663   41.4673   35.8737 O   0  0  0  0  0  1  0  0  0  0  0  0
    9.9608   45.1122   33.2473 C   0  0  2  0  0  0  0  0  0  0  0  0
   11.0654   46.0482   33.4751 N   0  0  0  0  0  0  0  0  0  0  0  0
    8.6636   45.6560   33.8699 C   0  0  0  0  0  0  0  0  0  0  0  0
    8.2951   46.9752   33.2673 C   0  0  0  0  0  0  0  0  0  0  0  0
    8.7450   48.1545   33.8709 O   0  0  0  0  0  0  0  0  0  0  0  0
    7.6298   47.0111   32.1962 O   0  0  0  0  0  0  0  0  0  0  0  0
    8.6144   49.4390   33.2671 C   0  0  0  0  0  0  0  0  0  0  0  0
    9.5477   49.5572   32.0931 C   0  0  0  0  0  0  0  0  0  0  0  0
    9.0457   49.6763   30.7864 C   0  0  0  0  0  0  0  0  0  0  0  0
   10.9367   49.5139   32.2964 C   0  0  0  0  0  0  0  0  0  0  0  0
    9.9233   49.7579   29.7006 C   0  0  0  0  0  0  0  0  0  0  0  0
   11.8107   49.5947   31.2080 C   0  0  0  0  0  0  0  0  0  0  0  0
   11.3045   49.7175   29.9111 C   0  0  0  0  0  0  0  0  0  0  0  0
    8.8070   40.1904   34.2077 O   0  0  0  0  0  0  0  0  0  0  0  0
   11.2364   40.7902   33.3658 O   0  0  0  0  0  0  0  0  0  0  0  0
   10.9133   40.6842   31.9930 C   0  0  0  0  0  0  0  0  0  0  0  0
   11.5174   39.3773   31.4394 C   0  0  0  0  0  0  0  0  0  0  0  0
   12.7476   39.0869   32.0756 O   0  0  0  0  0  0  0  0  0  0  0  0
   10.6069   38.1851   31.6656 C   0  0  0  0  0  0  0  0  0  0  0  0
   12.9372   37.6811   32.0290 C   0  0  0  0  0  0  0  0  0  0  0  0
    9.6403   38.0882   30.6475 O   0  0  0  0  0  0  0  0  0  0  0  0
   11.5789   37.0134   31.7045 C   0  0  0  0  0  0  0  0  0  0  0  0
   13.4915   37.2182   33.3239 N   0  0  0  0  0  0  0  0  0  0  0  0
   11.6125   36.3388   30.4673 O   0  0  0  0  0  0  0  0  0  0  0  0
   14.4766   36.3272   33.5730 C   0  0  0  0  0  0  0  0  0  0  0  0
   13.1184   37.6317   34.5690 C   0  0  0  0  0  0  0  0  0  0  0  0
   15.2066   35.6139   32.6740 N   0  0  0  0  0  0  0  0  0  0  0  0
   14.6735   36.2274   34.9184 C   0  0  0  0  0  0  0  0  0  0  0  0
   13.8228   37.0455   35.5785 N   0  0  0  0  0  0  0  0  0  0  0  0
   16.1637   34.7593   33.1548 C   0  0  0  0  0  0  0  0  0  0  0  0
   15.6517   35.3491   35.4132 C   0  0  0  0  0  0  0  0  0  0  0  0
   16.3792   34.6308   34.5043 N   0  0  0  0  0  0  0  0  0  0  0  0
   15.9004   35.1932   36.8090 N   0  0  0  0  0  0  0  0  0  0  0  0
    9.8107   44.9957   32.1509 H   0  0  0  0  0  0  0  0  0  0  0  0
   11.9221   45.7039   32.9824 H   0  0  0  0  0  0  0  0  0  0  0  0
   11.2747   46.1197   34.4984 H   0  0  0  0  0  0  0  0  0  0  0  0
    8.7888   45.7769   34.9683 H   0  0  0  0  0  0  0  0  0  0  0  0
    7.8304   44.9392   33.6994 H   0  0  0  0  0  0  0  0  0  0  0  0
    7.5565   49.6135   32.9715 H   0  0  0  0  0  0  0  0  0  0  0  0
    8.8808   50.2132   34.0171 H   0  0  0  0  0  0  0  0  0  0  0  0
    7.9780   49.7016   30.6071 H   0  0  0  0  0  0  0  0  0  0  0  0
   11.3402   49.4119   33.2964 H   0  0  0  0  0  0  0  0  0  0  0  0
    9.5325   49.8498   28.6954 H   0  0  0  0  0  0  0  0  0  0  0  0
   12.8803   49.5598   31.3698 H   0  0  0  0  0  0  0  0  0  0  0  0
   11.9821   49.7791   29.0694 H   0  0  0  0  0  0  0  0  0  0  0  0
   11.3849   41.5414   31.4666 H   0  0  0  0  0  0  0  0  0  0  0  0
    9.8232   40.7188   31.7568 H   0  0  0  0  0  0  0  0  0  0  0  0
   11.7006   39.5017   30.3471 H   0  0  0  0  0  0  0  0  0  0  0  0
   10.1097   38.2750   32.6605 H   0  0  0  0  0  0  0  0  0  0  0  0
   13.6713   37.4592   31.2227 H   0  0  0  0  0  0  0  0  0  0  0  0
    9.0033   37.3834   30.9350 H   0  0  0  0  0  0  0  0  0  0  0  0
   11.2706   36.3048   32.5088 H   0  0  0  0  0  0  0  0  0  0  0  0
   12.1444   35.5136   30.6141 H   0  0  0  0  0  0  0  0  0  0  0  0
   12.3362   38.3592   34.7445 H   0  0  0  0  0  0  0  0  0  0  0  0
   16.7571   34.1787   32.4620 H   0  0  0  0  0  0  0  0  0  0  0  0
   15.3532   35.7356   37.5139 H   0  0  0  0  0  0  0  0  0  0  0  0
   16.6363   34.5314   37.1415 H   0  0  0  0  0  0  0  0  0  0  0  0
  1  2  2  0
  1  3  1  0
  3  4  1  0
  4  5  1  0
  6  1  1  0
  7  6  1  0
  6  8  1  0
  8  9  1  0
  9 10  1  0
  9 11  2  0
 10 12  1  0
 12 13  1  0
 13 14  2  0
 15 13  1  0
 14 16  1  0
 17 15  2  0
 16 18  2  0
 18 17  1  0
  4 19  2  0
  4 20  1  0
 21 20  1  0
 21 22  1  0
 22 23  1  0
 22 24  1  0
 23 25  1  0
 24 26  1  0
 24 27  1  0
 27 25  1  0
 25 28  1  0
 27 29  1  0
 30 28  1  0
 31 28  1  0
 32 30  2  0
 30 33  1  0
 34 31  2  0
 35 32  1  0
 33 36  2  0
 33 34  1  0
 37 35  2  0
 37 36  1  0
 36 38  1  0
  6 39  1  6
  7 40  1  0
  7 41  1  0
  8 42  1  0
  8 43  1  0
 12 44  1  0
 12 45  1  0
 14 46  1  0
 15 47  1  0
 16 48  1  0
 17 49  1  0
 18 50  1  0
 21 51  1  0
 21 52  1  0
 22 53  1  0
 24 54  1  0
 25 55  1  0
 26 56  1  0
 27 57  1  0
 29 58  1  0
 31 59  1  0
 35 60  1  0
 38 61  1  0
 38 62  1  0
M  CHG  1   5  -1
M  END
>  <EmbedRMS>  (233) 
0.0893314832865412

$$$$

     RDKit          3D

 62 65  0  0  0  0  0  0  0  0999 V2000
   10.2802   43.7757   33.8073 C   0  0  0  0  0  0  0  0  0  0  0  0
   11.4058   43.5914   34.3579 O   0  0  0  0  0  0  0  0  0  0  0  0
    9.3680   42.7295   33.6978 O   0  0  0  0  0  0  0  0  0  0  0  0
    9.8872   41.2338   34.2838 P   0  0  0  0  0  5  0  0  0  0  0  0
   10.3664   41.4707   35.8743 O   0  0  0  0  0  1  0  0  0  0  0  0
    9.9532   45.1165   33.2432 C   0  0  2  0  0  0  0  0  0  0  0  0
   11.0749   46.0255   33.4864 N   0  0  0  0  0  0  0  0  0  0  0  0
    8.6517   45.6888   33.8495 C   0  0  0  0  0  0  0  0  0  0  0  0
    7.4323   45.0392   33.2695 C   0  0  0  0  0  0  0  0  0  0  0  0
    6.8342   43.9690   33.9401 O   0  0  0  0  0  0  0  0  0  0  0  0
    6.9743   45.4429   32.1656 O   0  0  0  0  0  0  0  0  0  0  0  0
    5.6840   43.2960   33.4409 C   0  0  0  0  0  0  0  0  0  0  0  0
    5.3708   42.1279   34.3288 C   0  0  0  0  0  0  0  0  0  0  0  0
    5.7041   40.8214   33.9341 C   0  0  0  0  0  0  0  0  0  0  0  0
    4.7889   42.3396   35.5891 C   0  0  0  0  0  0  0  0  0  0  0  0
    5.4433   39.7416   34.7835 C   0  0  0  0  0  0  0  0  0  0  0  0
    4.5289   41.2569   36.4353 C   0  0  0  0  0  0  0  0  0  0  0  0
    4.8550   39.9589   36.0325 C   0  0  0  0  0  0  0  0  0  0  0  0
    8.8122   40.1888   34.2086 O   0  0  0  0  0  0  0  0  0  0  0  0
   11.2394   40.7909   33.3681 O   0  0  0  0  0  0  0  0  0  0  0  0
   10.9185   40.6887   31.9948 C   0  0  0  0  0  0  0  0  0  0  0  0
   11.5178   39.3800   31.4399 C   0  0  0  0  0  0  0  0  0  0  0  0
   12.7482   39.0875   32.0749 O   0  0  0  0  0  0  0  0  0  0  0  0
   10.6051   38.1875   31.6660 C   0  0  0  0  0  0  0  0  0  0  0  0
   12.9359   37.6816   32.0288 C   0  0  0  0  0  0  0  0  0  0  0  0
    9.6418   38.0740   30.6450 O   0  0  0  0  0  0  0  0  0  0  0  0
   11.5763   37.0158   31.7047 C   0  0  0  0  0  0  0  0  0  0  0  0
   13.4907   37.2183   33.3237 N   0  0  0  0  0  0  0  0  0  0  0  0
   11.6099   36.3400   30.4680 O   0  0  0  0  0  0  0  0  0  0  0  0
   14.4761   36.3274   33.5728 C   0  0  0  0  0  0  0  0  0  0  0  0
   13.1180   37.6318   34.5689 C   0  0  0  0  0  0  0  0  0  0  0  0
   15.2063   35.6141   32.6738 N   0  0  0  0  0  0  0  0  0  0  0  0
   14.6733   36.2275   34.9182 C   0  0  0  0  0  0  0  0  0  0  0  0
   13.8225   37.0457   35.5783 N   0  0  0  0  0  0  0  0  0  0  0  0
   16.1635   34.7595   33.1546 C   0  0  0  0  0  0  0  0  0  0  0  0
   15.6515   35.3492   35.4130 C   0  0  0  0  0  0  0  0  0  0  0  0
   16.3791   34.6310   34.5041 N   0  0  0  0  0  0  0  0  0  0  0  0
   15.9002   35.1934   36.8089 N   0  0  0  0  0  0  0  0  0  0  0  0
    9.8314   45.0032   32.1425 H   0  0  0  0  0  0  0  0  0  0  0  0
   11.1003   46.2878   34.4998 H   0  0  0  0  0  0  0  0  0  0  0  0
   10.9171   46.9049   32.9423 H   0  0  0  0  0  0  0  0  0  0  0  0
    8.6527   45.5632   34.9546 H   0  0  0  0  0  0  0  0  0  0  0  0
    8.5915   46.7797   33.6427 H   0  0  0  0  0  0  0  0  0  0  0  0
    5.8721   42.9534   32.3994 H   0  0  0  0  0  0  0  0  0  0  0  0
    4.8206   43.9961   33.4232 H   0  0  0  0  0  0  0  0  0  0  0  0
    6.1696   40.6386   32.9734 H   0  0  0  0  0  0  0  0  0  0  0  0
    4.5402   43.3419   35.9158 H   0  0  0  0  0  0  0  0  0  0  0  0
    5.7017   38.7368   34.4751 H   0  0  0  0  0  0  0  0  0  0  0  0
    4.0781   41.4247   37.4049 H   0  0  0  0  0  0  0  0  0  0  0  0
    4.6554   39.1222   36.6894 H   0  0  0  0  0  0  0  0  0  0  0  0
   11.3979   41.5435   31.4716 H   0  0  0  0  0  0  0  0  0  0  0  0
    9.8301   40.7368   31.7561 H   0  0  0  0  0  0  0  0  0  0  0  0
   11.6998   39.5044   30.3474 H   0  0  0  0  0  0  0  0  0  0  0  0
   10.1103   38.2620   32.6641 H   0  0  0  0  0  0  0  0  0  0  0  0
   13.6694   37.4586   31.2222 H   0  0  0  0  0  0  0  0  0  0  0  0
    8.8983   38.6864   30.8836 H   0  0  0  0  0  0  0  0  0  0  0  0
   11.2688   36.3069   32.5092 H   0  0  0  0  0  0  0  0  0  0  0  0
   12.1423   35.5152   30.6153 H   0  0  0  0  0  0  0  0  0  0  0  0
   12.3357   38.3592   34.7445 H   0  0  0  0  0  0  0  0  0  0  0  0
   16.7568   34.1789   32.4618 H   0  0  0  0  0  0  0  0  0  0  0  0
   15.3530   35.7357   37.5137 H   0  0  0  0  0  0  0  0  0  0  0  0
   16.6361   34.5315   37.1413 H   0  0  0  0  0  0  0  0  0  0  0  0
  1  2  2  0
  1  3  1  0
  3  4  1  0
  4  5  1  0
  6  1  1  0
  7  6  1  0
  6  8  1  0
  8  9  1  0
  9 10  1  0
  9 11  2  0
 10 12  1  0
 12 13  1  0
 13 14  2  0
 15 13  1  0
 14 16  1  0
 17 15  2  0
 16 18  2  0
 18 17  1  0
  4 19  2  0
  4 20  1  0
 21 20  1  0
 21 22  1  0
 22 23  1  0
 22 24  1  0
 23 25  1  0
 24 26  1  0
 24 27  1  0
 27 25  1  0
 25 28  1  0
 27 29  1  0
 30 28  1  0
 31 28  1  0
 32 30  2  0
 30 33  1  0
 34 31  2  0
 35 32  1  0
 33 36  2  0
 33 34  1  0
 37 35  2  0
 37 36  1  0
 36 38  1  0
  6 39  1  6
  7 40  1  0
  7 41  1  0
  8 42  1  0
  8 43  1  0
 12 44  1  0
 12 45  1  0
 14 46  1  0
 15 47  1  0
 16 48  1  0
 17 49  1  0
 18 50  1  0
 21 51  1  0
 21 52  1  0
 22 53  1  0
 24 54  1  0
 25 55  1  0
 26 56  1  0
 27 57  1  0
 29 58  1  0
 31 59  1  0
 35 60  1  0
 38 61  1  0
 38 62  1  0
M  CHG  1   5  -1
M  END
>  <EmbedRMS>  (234) 
0.08899365158958905

$$$$

     RDKit          3D

 62 65  0  0  0  0  0  0  0  0999 V2000
   10.2846   43.7740   33.8066 C   0  0  0  0  0  0  0  0  0  0  0  0
   11.4068   43.5900   34.3638 O   0  0  0  0  0  0  0  0  0  0  0  0
    9.3680   42.7310   33.6986 O   0  0  0  0  0  0  0  0  0  0  0  0
    9.8859   41.2341   34.2835 P   0  0  0  0  0  5  0  0  0  0  0  0
   10.3662   41.4697   35.8740 O   0  0  0  0  0  1  0  0  0  0  0  0
    9.9493   45.1166   33.2551 C   0  0  2  0  0  0  0  0  0  0  0  0
   11.0751   46.0285   33.4729 N   0  0  0  0  0  0  0  0  0  0  0  0
    8.6756   45.6513   33.9412 C   0  0  0  0  0  0  0  0  0  0  0  0
    8.1888   46.9273   33.3012 C   0  0  0  0  0  0  0  0  0  0  0  0
    8.3782   48.1896   33.8800 O   0  0  0  0  0  0  0  0  0  0  0  0
    7.6150   46.8604   32.1823 O   0  0  0  0  0  0  0  0  0  0  0  0
    8.9566   48.4106   35.1627 C   0  0  0  0  0  0  0  0  0  0  0  0
    9.0512   49.8871   35.4116 C   0  0  0  0  0  0  0  0  0  0  0  0
   10.1757   50.6067   34.9746 C   0  0  0  0  0  0  0  0  0  0  0  0
    7.9885   50.5732   36.0224 C   0  0  0  0  0  0  0  0  0  0  0  0
   10.2474   51.9892   35.1734 C   0  0  0  0  0  0  0  0  0  0  0  0
    8.0641   51.9558   36.2193 C   0  0  0  0  0  0  0  0  0  0  0  0
    9.1936   52.6628   35.7975 C   0  0  0  0  0  0  0  0  0  0  0  0
    8.8081   40.1914   34.2081 O   0  0  0  0  0  0  0  0  0  0  0  0
   11.2374   40.7898   33.3677 O   0  0  0  0  0  0  0  0  0  0  0  0
   10.9156   40.6881   31.9947 C   0  0  0  0  0  0  0  0  0  0  0  0
   11.5262   39.3870   31.4363 C   0  0  0  0  0  0  0  0  0  0  0  0
   12.7492   39.0892   32.0818 O   0  0  0  0  0  0  0  0  0  0  0  0
   10.6123   38.1893   31.6461 C   0  0  0  0  0  0  0  0  0  0  0  0
   12.9374   37.6826   32.0301 C   0  0  0  0  0  0  0  0  0  0  0  0
    9.6150   38.0838   30.6538 O   0  0  0  0  0  0  0  0  0  0  0  0
   11.5793   37.0136   31.7014 C   0  0  0  0  0  0  0  0  0  0  0  0
   13.4906   37.2169   33.3242 N   0  0  0  0  0  0  0  0  0  0  0  0
   11.6216   36.3252   30.4725 O   0  0  0  0  0  0  0  0  0  0  0  0
   14.4763   36.3266   33.5731 C   0  0  0  0  0  0  0  0  0  0  0  0
   13.1182   37.6308   34.5694 C   0  0  0  0  0  0  0  0  0  0  0  0
   15.2066   35.6137   32.6740 N   0  0  0  0  0  0  0  0  0  0  0  0
   14.6736   36.2270   34.9185 C   0  0  0  0  0  0  0  0  0  0  0  0
   13.8229   37.0451   35.5787 N   0  0  0  0  0  0  0  0  0  0  0  0
   16.1639   34.7593   33.1547 C   0  0  0  0  0  0  0  0  0  0  0  0
   15.6519   35.3489   35.4132 C   0  0  0  0  0  0  0  0  0  0  0  0
   16.3794   34.6308   34.5042 N   0  0  0  0  0  0  0  0  0  0  0  0
   15.9006   35.1931   36.8090 N   0  0  0  0  0  0  0  0  0  0  0  0
    9.7644   45.0055   32.1624 H   0  0  0  0  0  0  0  0  0  0  0  0
   11.8997   45.6701   32.9369 H   0  0  0  0  0  0  0  0  0  0  0  0
   10.8506   46.9493   33.0317 H   0  0  0  0  0  0  0  0  0  0  0  0
    7.8612   44.8995   33.8481 H   0  0  0  0  0  0  0  0  0  0  0  0
    8.8590   45.7852   35.0273 H   0  0  0  0  0  0  0  0  0  0  0  0
    8.3271   47.9332   35.9451 H   0  0  0  0  0  0  0  0  0  0  0  0
    9.9705   47.9581   35.2079 H   0  0  0  0  0  0  0  0  0  0  0  0
   10.9945   50.0980   34.4808 H   0  0  0  0  0  0  0  0  0  0  0  0
    7.1034   50.0389   36.3450 H   0  0  0  0  0  0  0  0  0  0  0  0
   11.1182   52.5388   34.8401 H   0  0  0  0  0  0  0  0  0  0  0  0
    7.2454   52.4796   36.6955 H   0  0  0  0  0  0  0  0  0  0  0  0
    9.2500   53.7330   35.9493 H   0  0  0  0  0  0  0  0  0  0  0  0
   11.3830   41.5502   31.4724 H   0  0  0  0  0  0  0  0  0  0  0  0
    9.8255   40.7180   31.7577 H   0  0  0  0  0  0  0  0  0  0  0  0
   11.7292   39.5285   30.3502 H   0  0  0  0  0  0  0  0  0  0  0  0
   10.1140   38.2719   32.6379 H   0  0  0  0  0  0  0  0  0  0  0  0
   13.6726   37.4635   31.2240 H   0  0  0  0  0  0  0  0  0  0  0  0
   10.0535   38.1084   29.7638 H   0  0  0  0  0  0  0  0  0  0  0  0
   11.2646   36.3134   32.5107 H   0  0  0  0  0  0  0  0  0  0  0  0
   12.1549   35.5031   30.6315 H   0  0  0  0  0  0  0  0  0  0  0  0
   12.3362   38.3586   34.7450 H   0  0  0  0  0  0  0  0  0  0  0  0
   16.7574   34.1788   32.4619 H   0  0  0  0  0  0  0  0  0  0  0  0
   15.3533   35.7353   37.5139 H   0  0  0  0  0  0  0  0  0  0  0  0
   16.6366   34.5314   37.1415 H   0  0  0  0  0  0  0  0  0  0  0  0
  1  2  2  0
  1  3  1  0
  3  4  1  0
  4  5  1  0
  6  1  1  0
  7  6  1  0
  6  8  1  0
  8  9  1  0
  9 10  1  0
  9 11  2  0
 10 12  1  0
 12 13  1  0
 13 14  2  0
 15 13  1  0
 14 16  1  0
 17 15  2  0
 16 18  2  0
 18 17  1  0
  4 19  2  0
  4 20  1  0
 21 20  1  0
 21 22  1  0
 22 23  1  0
 22 24  1  0
 23 25  1  0
 24 26  1  0
 24 27  1  0
 27 25  1  0
 25 28  1  0
 27 29  1  0
 30 28  1  0
 31 28  1  0
 32 30  2  0
 30 33  1  0
 34 31  2  0
 35 32  1  0
 33 36  2  0
 33 34  1  0
 37 35  2  0
 37 36  1  0
 36 38  1  0
  6 39  1  6
  7 40  1  0
  7 41  1  0
  8 42  1  0
  8 43  1  0
 12 44  1  0
 12 45  1  0
 14 46  1  0
 15 47  1  0
 16 48  1  0
 17 49  1  0
 18 50  1  0
 21 51  1  0
 21 52  1  0
 22 53  1  0
 24 54  1  0
 25 55  1  0
 26 56  1  0
 27 57  1  0
 29 58  1  0
 31 59  1  0
 35 60  1  0
 38 61  1  0
 38 62  1  0
M  CHG  1   5  -1
M  END
>  <EmbedRMS>  (235) 
0.0880234772508155

$$$$

     RDKit          3D

 62 65  0  0  0  0  0  0  0  0999 V2000
   10.2840   43.7720   33.8119 C   0  0  0  0  0  0  0  0  0  0  0  0
   11.4082   43.5830   34.3632 O   0  0  0  0  0  0  0  0  0  0  0  0
    9.3697   42.7284   33.6983 O   0  0  0  0  0  0  0  0  0  0  0  0
    9.8854   41.2322   34.2838 P   0  0  0  0  0  5  0  0  0  0  0  0
   10.3654   41.4684   35.8744 O   0  0  0  0  0  1  0  0  0  0  0  0
    9.9554   45.1191   33.2552 C   0  0  2  0  0  0  0  0  0  0  0  0
   11.0700   46.0446   33.4679 N   0  0  0  0  0  0  0  0  0  0  0  0
    8.6829   45.7052   33.8964 C   0  0  0  0  0  0  0  0  0  0  0  0
    7.4495   44.9590   33.4880 C   0  0  0  0  0  0  0  0  0  0  0  0
    6.8595   44.0621   34.3859 O   0  0  0  0  0  0  0  0  0  0  0  0
    6.9746   45.1205   32.3307 O   0  0  0  0  0  0  0  0  0  0  0  0
    5.7107   43.2793   34.0702 C   0  0  0  0  0  0  0  0  0  0  0  0
    4.4819   44.1453   34.0206 C   0  0  0  0  0  0  0  0  0  0  0  0
    3.9979   44.7425   35.1959 C   0  0  0  0  0  0  0  0  0  0  0  0
    3.8231   44.3860   32.8032 C   0  0  0  0  0  0  0  0  0  0  0  0
    2.8660   45.5626   35.1544 C   0  0  0  0  0  0  0  0  0  0  0  0
    2.6915   45.2070   32.7661 C   0  0  0  0  0  0  0  0  0  0  0  0
    2.2129   45.7942   33.9406 C   0  0  0  0  0  0  0  0  0  0  0  0
    8.8066   40.1907   34.2079 O   0  0  0  0  0  0  0  0  0  0  0  0
   11.2368   40.7890   33.3675 O   0  0  0  0  0  0  0  0  0  0  0  0
   10.9139   40.6857   31.9948 C   0  0  0  0  0  0  0  0  0  0  0  0
   11.5170   39.3796   31.4407 C   0  0  0  0  0  0  0  0  0  0  0  0
   12.7489   39.0884   32.0759 O   0  0  0  0  0  0  0  0  0  0  0  0
   10.6051   38.1876   31.6658 C   0  0  0  0  0  0  0  0  0  0  0  0
   12.9412   37.6827   32.0277 C   0  0  0  0  0  0  0  0  0  0  0  0
    9.6358   38.0930   30.6502 O   0  0  0  0  0  0  0  0  0  0  0  0
   11.5827   37.0179   31.6936 C   0  0  0  0  0  0  0  0  0  0  0  0
   13.4909   37.2176   33.3239 N   0  0  0  0  0  0  0  0  0  0  0  0
   11.6140   36.3179   30.4675 O   0  0  0  0  0  0  0  0  0  0  0  0
   14.4763   36.3270   33.5733 C   0  0  0  0  0  0  0  0  0  0  0  0
   13.1179   37.6316   34.5688 C   0  0  0  0  0  0  0  0  0  0  0  0
   15.2067   35.6140   32.6744 N   0  0  0  0  0  0  0  0  0  0  0  0
   14.6731   36.2273   34.9186 C   0  0  0  0  0  0  0  0  0  0  0  0
   13.8223   37.0456   35.5785 N   0  0  0  0  0  0  0  0  0  0  0  0
   16.1639   34.7594   33.1551 C   0  0  0  0  0  0  0  0  0  0  0  0
   15.6515   35.3491   35.4134 C   0  0  0  0  0  0  0  0  0  0  0  0
   16.3792   34.6310   34.5046 N   0  0  0  0  0  0  0  0  0  0  0  0
   15.9002   35.1933   36.8093 N   0  0  0  0  0  0  0  0  0  0  0  0
    9.7936   45.0153   32.1592 H   0  0  0  0  0  0  0  0  0  0  0  0
   11.2922   46.1155   34.4887 H   0  0  0  0  0  0  0  0  0  0  0  0
   11.9181   45.6910   32.9666 H   0  0  0  0  0  0  0  0  0  0  0  0
    8.7749   45.6947   35.0048 H   0  0  0  0  0  0  0  0  0  0  0  0
    8.5681   46.7655   33.5818 H   0  0  0  0  0  0  0  0  0  0  0  0
    5.8724   42.7397   33.1111 H   0  0  0  0  0  0  0  0  0  0  0  0
    5.5776   42.5107   34.8606 H   0  0  0  0  0  0  0  0  0  0  0  0
    4.4983   44.5735   36.1414 H   0  0  0  0  0  0  0  0  0  0  0  0
    4.1850   43.9416   31.8844 H   0  0  0  0  0  0  0  0  0  0  0  0
    2.4961   46.0199   36.0630 H   0  0  0  0  0  0  0  0  0  0  0  0
    2.1865   45.3892   31.8263 H   0  0  0  0  0  0  0  0  0  0  0  0
    1.3374   46.4298   33.9100 H   0  0  0  0  0  0  0  0  0  0  0  0
    9.8239   40.7212   31.7578 H   0  0  0  0  0  0  0  0  0  0  0  0
   11.3865   41.5432   31.4698 H   0  0  0  0  0  0  0  0  0  0  0  0
   11.6993   39.5066   30.3485 H   0  0  0  0  0  0  0  0  0  0  0  0
   10.1121   38.2722   32.6631 H   0  0  0  0  0  0  0  0  0  0  0  0
   13.6816   37.4629   31.2268 H   0  0  0  0  0  0  0  0  0  0  0  0
    9.0034   37.3830   30.9351 H   0  0  0  0  0  0  0  0  0  0  0  0
   11.2846   36.3040   32.4928 H   0  0  0  0  0  0  0  0  0  0  0  0
   11.8849   36.9589   29.7588 H   0  0  0  0  0  0  0  0  0  0  0  0
   12.3363   38.3599   34.7440 H   0  0  0  0  0  0  0  0  0  0  0  0
   16.7574   34.1790   32.4623 H   0  0  0  0  0  0  0  0  0  0  0  0
   16.6362   34.5317   37.1418 H   0  0  0  0  0  0  0  0  0  0  0  0
   15.3529   35.7356   37.5141 H   0  0  0  0  0  0  0  0  0  0  0  0
  1  2  2  0
  1  3  1  0
  3  4  1  0
  4  5  1  0
  6  1  1  0
  7  6  1  0
  6  8  1  0
  8  9  1  0
  9 10  1  0
  9 11  2  0
 10 12  1  0
 12 13  1  0
 13 14  2  0
 15 13  1  0
 14 16  1  0
 17 15  2  0
 16 18  2  0
 18 17  1  0
  4 19  2  0
  4 20  1  0
 21 20  1  0
 21 22  1  0
 22 23  1  0
 22 24  1  0
 23 25  1  0
 24 26  1  0
 24 27  1  0
 27 25  1  0
 25 28  1  0
 27 29  1  0
 30 28  1  0
 31 28  1  0
 32 30  2  0
 30 33  1  0
 34 31  2  0
 35 32  1  0
 33 36  2  0
 33 34  1  0
 37 35  2  0
 37 36  1  0
 36 38  1  0
  6 39  1  6
  7 40  1  0
  7 41  1  0
  8 42  1  0
  8 43  1  0
 12 44  1  0
 12 45  1  0
 14 46  1  0
 15 47  1  0
 16 48  1  0
 17 49  1  0
 18 50  1  0
 21 51  1  0
 21 52  1  0
 22 53  1  0
 24 54  1  0
 25 55  1  0
 26 56  1  0
 27 57  1  0
 29 58  1  0
 31 59  1  0
 35 60  1  0
 38 61  1  0
 38 62  1  0
M  CHG  1   5  -1
M  END
>  <EmbedRMS>  (236) 
0.08873955398886381

$$$$

     RDKit          3D

 62 65  0  0  0  0  0  0  0  0999 V2000
   10.2828   43.7757   33.8085 C   0  0  0  0  0  0  0  0  0  0  0  0
   11.4085   43.5916   34.3584 O   0  0  0  0  0  0  0  0  0  0  0  0
    9.3669   42.7319   33.7013 O   0  0  0  0  0  0  0  0  0  0  0  0
    9.8860   41.2347   34.2841 P   0  0  0  0  0  5  0  0  0  0  0  0
   10.3669   41.4695   35.8745 O   0  0  0  0  0  1  0  0  0  0  0  0
    9.9537   45.1113   33.2428 C   0  0  2  0  0  0  0  0  0  0  0  0
   11.0723   46.0265   33.4842 N   0  0  0  0  0  0  0  0  0  0  0  0
    8.6382   45.6455   33.8521 C   0  0  0  0  0  0  0  0  0  0  0  0
    8.1826   46.9095   33.1702 C   0  0  0  0  0  0  0  0  0  0  0  0
    7.4047   46.8997   32.0047 O   0  0  0  0  0  0  0  0  0  0  0  0
    8.5446   48.0193   33.6426 O   0  0  0  0  0  0  0  0  0  0  0  0
    6.8548   45.7246   31.4160 C   0  0  0  0  0  0  0  0  0  0  0  0
    6.1354   46.0973   30.1533 C   0  0  0  0  0  0  0  0  0  0  0  0
    6.8293   46.1497   28.9330 C   0  0  0  0  0  0  0  0  0  0  0  0
    4.7793   46.4615   30.1911 C   0  0  0  0  0  0  0  0  0  0  0  0
    6.1667   46.5328   27.7625 C   0  0  0  0  0  0  0  0  0  0  0  0
    4.1204   46.8440   29.0183 C   0  0  0  0  0  0  0  0  0  0  0  0
    4.8128   46.8773   27.8046 C   0  0  0  0  0  0  0  0  0  0  0  0
    8.8084   40.1917   34.2085 O   0  0  0  0  0  0  0  0  0  0  0  0
   11.2374   40.7909   33.3675 O   0  0  0  0  0  0  0  0  0  0  0  0
   10.9151   40.6884   31.9947 C   0  0  0  0  0  0  0  0  0  0  0  0
   11.5259   39.3871   31.4365 C   0  0  0  0  0  0  0  0  0  0  0  0
   12.7490   39.0894   32.0820 O   0  0  0  0  0  0  0  0  0  0  0  0
   10.6122   38.1893   31.6461 C   0  0  0  0  0  0  0  0  0  0  0  0
   12.9373   37.6828   32.0301 C   0  0  0  0  0  0  0  0  0  0  0  0
    9.6150   38.0839   30.6538 O   0  0  0  0  0  0  0  0  0  0  0  0
   11.5793   37.0137   31.7014 C   0  0  0  0  0  0  0  0  0  0  0  0
   13.4906   37.2170   33.3242 N   0  0  0  0  0  0  0  0  0  0  0  0
   11.6216   36.3253   30.4725 O   0  0  0  0  0  0  0  0  0  0  0  0
   14.4763   36.3266   33.5731 C   0  0  0  0  0  0  0  0  0  0  0  0
   13.1181   37.6308   34.5694 C   0  0  0  0  0  0  0  0  0  0  0  0
   15.2065   35.6137   32.6740 N   0  0  0  0  0  0  0  0  0  0  0  0
   14.6735   36.2270   34.9185 C   0  0  0  0  0  0  0  0  0  0  0  0
   13.8229   37.0451   35.5787 N   0  0  0  0  0  0  0  0  0  0  0  0
   16.1639   34.7593   33.1547 C   0  0  0  0  0  0  0  0  0  0  0  0
   15.6519   35.3489   35.4132 C   0  0  0  0  0  0  0  0  0  0  0  0
   16.3794   34.6308   34.5042 N   0  0  0  0  0  0  0  0  0  0  0  0
   15.9006   35.1931   36.8090 N   0  0  0  0  0  0  0  0  0  0  0  0
    9.8294   44.9815   32.1458 H   0  0  0  0  0  0  0  0  0  0  0  0
   10.9421   46.8842   32.9006 H   0  0  0  0  0  0  0  0  0  0  0  0
   11.0790   46.3243   34.4877 H   0  0  0  0  0  0  0  0  0  0  0  0
    7.8396   44.8786   33.7743 H   0  0  0  0  0  0  0  0  0  0  0  0
    8.7782   45.8426   34.9380 H   0  0  0  0  0  0  0  0  0  0  0  0
    6.1474   45.2447   32.1268 H   0  0  0  0  0  0  0  0  0  0  0  0
    7.6617   44.9966   31.1864 H   0  0  0  0  0  0  0  0  0  0  0  0
    7.8810   45.8946   28.8886 H   0  0  0  0  0  0  0  0  0  0  0  0
    4.2337   46.4494   31.1266 H   0  0  0  0  0  0  0  0  0  0  0  0
    6.7039   46.5663   26.8235 H   0  0  0  0  0  0  0  0  0  0  0  0
    3.0739   47.1184   29.0510 H   0  0  0  0  0  0  0  0  0  0  0  0
    4.3018   47.1750   26.8981 H   0  0  0  0  0  0  0  0  0  0  0  0
    9.8248   40.7179   31.7583 H   0  0  0  0  0  0  0  0  0  0  0  0
   11.3818   41.5505   31.4719 H   0  0  0  0  0  0  0  0  0  0  0  0
   11.7290   39.5287   30.3504 H   0  0  0  0  0  0  0  0  0  0  0  0
   10.1139   38.2719   32.6379 H   0  0  0  0  0  0  0  0  0  0  0  0
   13.6725   37.4638   31.2240 H   0  0  0  0  0  0  0  0  0  0  0  0
   10.0535   38.1086   29.7638 H   0  0  0  0  0  0  0  0  0  0  0  0
   11.2646   36.3135   32.5107 H   0  0  0  0  0  0  0  0  0  0  0  0
   12.1550   35.5033   30.6316 H   0  0  0  0  0  0  0  0  0  0  0  0
   12.3362   38.3586   34.7451 H   0  0  0  0  0  0  0  0  0  0  0  0
   16.7573   34.1788   32.4619 H   0  0  0  0  0  0  0  0  0  0  0  0
   15.3533   35.7353   37.5139 H   0  0  0  0  0  0  0  0  0  0  0  0
   16.6366   34.5314   37.1415 H   0  0  0  0  0  0  0  0  0  0  0  0
  1  2  2  0
  1  3  1  0
  3  4  1  0
  4  5  1  0
  6  1  1  0
  7  6  1  0
  6  8  1  0
  8  9  1  0
  9 10  1  0
  9 11  2  0
 10 12  1  0
 12 13  1  0
 13 14  2  0
 15 13  1  0
 14 16  1  0
 17 15  2  0
 16 18  2  0
 18 17  1  0
  4 19  2  0
  4 20  1  0
 21 20  1  0
 21 22  1  0
 22 23  1  0
 22 24  1  0
 23 25  1  0
 24 26  1  0
 24 27  1  0
 27 25  1  0
 25 28  1  0
 27 29  1  0
 30 28  1  0
 31 28  1  0
 32 30  2  0
 30 33  1  0
 34 31  2  0
 35 32  1  0
 33 36  2  0
 33 34  1  0
 37 35  2  0
 37 36  1  0
 36 38  1  0
  6 39  1  6
  7 40  1  0
  7 41  1  0
  8 42  1  0
  8 43  1  0
 12 44  1  0
 12 45  1  0
 14 46  1  0
 15 47  1  0
 16 48  1  0
 17 49  1  0
 18 50  1  0
 21 51  1  0
 21 52  1  0
 22 53  1  0
 24 54  1  0
 25 55  1  0
 26 56  1  0
 27 57  1  0
 29 58  1  0
 31 59  1  0
 35 60  1  0
 38 61  1  0
 38 62  1  0
M  CHG  1   5  -1
M  END
>  <EmbedRMS>  (237) 
0.08762146338499388

$$$$

     RDKit          3D

 62 65  0  0  0  0  0  0  0  0999 V2000
   10.2877   43.7688   33.8085 C   0  0  0  0  0  0  0  0  0  0  0  0
   11.4117   43.5793   34.3595 O   0  0  0  0  0  0  0  0  0  0  0  0
    9.3667   42.7304   33.7018 O   0  0  0  0  0  0  0  0  0  0  0  0
    9.8841   41.2327   34.2844 P   0  0  0  0  0  5  0  0  0  0  0  0
   10.3649   41.4681   35.8749 O   0  0  0  0  0  1  0  0  0  0  0  0
    9.9637   45.1117   33.2472 C   0  0  2  0  0  0  0  0  0  0  0  0
   11.0620   46.0541   33.4764 N   0  0  0  0  0  0  0  0  0  0  0  0
    8.6428   45.6683   33.8123 C   0  0  0  0  0  0  0  0  0  0  0  0
    8.6700   45.8301   35.3034 C   0  0  0  0  0  0  0  0  0  0  0  0
    9.0943   47.0435   35.8565 O   0  0  0  0  0  0  0  0  0  0  0  0
    8.3431   44.8629   36.0443 O   0  0  0  0  0  0  0  0  0  0  0  0
    9.1541   47.2849   37.2605 C   0  0  0  0  0  0  0  0  0  0  0  0
    7.7681   47.4157   37.8307 C   0  0  0  0  0  0  0  0  0  0  0  0
    6.9674   48.5150   37.4809 C   0  0  0  0  0  0  0  0  0  0  0  0
    7.2517   46.4329   38.6919 C   0  0  0  0  0  0  0  0  0  0  0  0
    5.6713   48.6333   37.9923 C   0  0  0  0  0  0  0  0  0  0  0  0
    5.9548   46.5549   39.2010 C   0  0  0  0  0  0  0  0  0  0  0  0
    5.1656   47.6544   38.8522 C   0  0  0  0  0  0  0  0  0  0  0  0
    8.8064   40.1902   34.2084 O   0  0  0  0  0  0  0  0  0  0  0  0
   11.2363   40.7891   33.3687 O   0  0  0  0  0  0  0  0  0  0  0  0
   10.9157   40.6888   31.9953 C   0  0  0  0  0  0  0  0  0  0  0  0
   11.5251   39.3872   31.4365 C   0  0  0  0  0  0  0  0  0  0  0  0
   12.7486   39.0879   32.0803 O   0  0  0  0  0  0  0  0  0  0  0  0
   10.6100   38.1909   31.6470 C   0  0  0  0  0  0  0  0  0  0  0  0
   12.9348   37.6808   32.0292 C   0  0  0  0  0  0  0  0  0  0  0  0
    9.6126   38.0874   30.6546 O   0  0  0  0  0  0  0  0  0  0  0  0
   11.5767   37.0133   31.7025 C   0  0  0  0  0  0  0  0  0  0  0  0
   13.4901   37.2165   33.3236 N   0  0  0  0  0  0  0  0  0  0  0  0
   11.6322   36.3231   30.4741 O   0  0  0  0  0  0  0  0  0  0  0  0
   14.4763   36.3266   33.5727 C   0  0  0  0  0  0  0  0  0  0  0  0
   13.1179   37.6307   34.5689 C   0  0  0  0  0  0  0  0  0  0  0  0
   15.2065   35.6135   32.6738 N   0  0  0  0  0  0  0  0  0  0  0  0
   14.6736   36.2272   34.9182 C   0  0  0  0  0  0  0  0  0  0  0  0
   13.8228   37.0453   35.5783 N   0  0  0  0  0  0  0  0  0  0  0  0
   16.1640   34.7593   33.1547 C   0  0  0  0  0  0  0  0  0  0  0  0
   15.6518   35.3491   35.4131 C   0  0  0  0  0  0  0  0  0  0  0  0
   16.3795   34.6309   34.5042 N   0  0  0  0  0  0  0  0  0  0  0  0
   15.9004   35.1933   36.8089 N   0  0  0  0  0  0  0  0  0  0  0  0
    9.8324   44.9920   32.1492 H   0  0  0  0  0  0  0  0  0  0  0  0
   11.3023   46.0981   34.4940 H   0  0  0  0  0  0  0  0  0  0  0  0
   11.9099   45.7266   32.9575 H   0  0  0  0  0  0  0  0  0  0  0  0
    7.8033   44.9952   33.5314 H   0  0  0  0  0  0  0  0  0  0  0  0
    8.4360   46.6563   33.3469 H   0  0  0  0  0  0  0  0  0  0  0  0
    9.7284   46.4739   37.7600 H   0  0  0  0  0  0  0  0  0  0  0  0
    9.7055   48.2330   37.4342 H   0  0  0  0  0  0  0  0  0  0  0  0
    7.3471   49.2773   36.8117 H   0  0  0  0  0  0  0  0  0  0  0  0
    7.8496   45.5729   38.9670 H   0  0  0  0  0  0  0  0  0  0  0  0
    5.0583   49.4829   37.7206 H   0  0  0  0  0  0  0  0  0  0  0  0
    5.5611   45.7959   39.8646 H   0  0  0  0  0  0  0  0  0  0  0  0
    4.1619   47.7468   39.2466 H   0  0  0  0  0  0  0  0  0  0  0  0
    9.8258   40.7204   31.7576 H   0  0  0  0  0  0  0  0  0  0  0  0
   11.3847   41.5506   31.4742 H   0  0  0  0  0  0  0  0  0  0  0  0
   11.7271   39.5288   30.3502 H   0  0  0  0  0  0  0  0  0  0  0  0
   10.1122   38.2730   32.6390 H   0  0  0  0  0  0  0  0  0  0  0  0
   13.6685   37.4591   31.2224 H   0  0  0  0  0  0  0  0  0  0  0  0
   10.0514   38.1110   29.7648 H   0  0  0  0  0  0  0  0  0  0  0  0
   11.2802   36.3128   32.5195 H   0  0  0  0  0  0  0  0  0  0  0  0
   10.8625   35.6960   30.4645 H   0  0  0  0  0  0  0  0  0  0  0  0
   12.3356   38.3581   34.7445 H   0  0  0  0  0  0  0  0  0  0  0  0
   16.7575   34.1788   32.4619 H   0  0  0  0  0  0  0  0  0  0  0  0
   15.3531   35.7355   37.5138 H   0  0  0  0  0  0  0  0  0  0  0  0
   16.6364   34.5315   37.1415 H   0  0  0  0  0  0  0  0  0  0  0  0
  1  2  2  0
  1  3  1  0
  3  4  1  0
  4  5  1  0
  6  1  1  0
  7  6  1  0
  6  8  1  0
  8  9  1  0
  9 10  1  0
  9 11  2  0
 10 12  1  0
 12 13  1  0
 13 14  2  0
 15 13  1  0
 14 16  1  0
 17 15  2  0
 16 18  2  0
 18 17  1  0
  4 19  2  0
  4 20  1  0
 21 20  1  0
 21 22  1  0
 22 23  1  0
 22 24  1  0
 23 25  1  0
 24 26  1  0
 24 27  1  0
 27 25  1  0
 25 28  1  0
 27 29  1  0
 30 28  1  0
 31 28  1  0
 32 30  2  0
 30 33  1  0
 34 31  2  0
 35 32  1  0
 33 36  2  0
 33 34  1  0
 37 35  2  0
 37 36  1  0
 36 38  1  0
  6 39  1  6
  7 40  1  0
  7 41  1  0
  8 42  1  0
  8 43  1  0
 12 44  1  0
 12 45  1  0
 14 46  1  0
 15 47  1  0
 16 48  1  0
 17 49  1  0
 18 50  1  0
 21 51  1  0
 21 52  1  0
 22 53  1  0
 24 54  1  0
 25 55  1  0
 26 56  1  0
 27 57  1  0
 29 58  1  0
 31 59  1  0
 35 60  1  0
 38 61  1  0
 38 62  1  0
M  CHG  1   5  -1
M  END
>  <EmbedRMS>  (238) 
0.08879718172011583

$$$$

     RDKit          3D

 62 65  0  0  0  0  0  0  0  0999 V2000
   10.2828   43.7723   33.8126 C   0  0  0  0  0  0  0  0  0  0  0  0
   11.4071   43.5830   34.3637 O   0  0  0  0  0  0  0  0  0  0  0  0
    9.3687   42.7289   33.6988 O   0  0  0  0  0  0  0  0  0  0  0  0
    9.8854   41.2323   34.2837 P   0  0  0  0  0  5  0  0  0  0  0  0
   10.3655   41.4683   35.8743 O   0  0  0  0  0  1  0  0  0  0  0  0
    9.9560   45.1186   33.2541 C   0  0  2  0  0  0  0  0  0  0  0  0
   11.0715   46.0431   33.4678 N   0  0  0  0  0  0  0  0  0  0  0  0
    8.6828   45.7074   33.8946 C   0  0  0  0  0  0  0  0  0  0  0  0
    7.4259   45.0422   33.3927 C   0  0  0  0  0  0  0  0  0  0  0  0
    6.8332   45.3680   32.1637 O   0  0  0  0  0  0  0  0  0  0  0  0
    6.9011   44.1334   34.0886 O   0  0  0  0  0  0  0  0  0  0  0  0
    7.1888   46.4873   31.3512 C   0  0  0  0  0  0  0  0  0  0  0  0
    6.6783   47.7697   31.9523 C   0  0  0  0  0  0  0  0  0  0  0  0
    7.5308   48.8768   32.1019 C   0  0  0  0  0  0  0  0  0  0  0  0
    5.3301   47.8838   32.3308 C   0  0  0  0  0  0  0  0  0  0  0  0
    7.0460   50.0706   32.6453 C   0  0  0  0  0  0  0  0  0  0  0  0
    4.8493   49.0796   32.8733 C   0  0  0  0  0  0  0  0  0  0  0  0
    5.7070   50.1714   33.0325 C   0  0  0  0  0  0  0  0  0  0  0  0
    8.8074   40.1902   34.2079 O   0  0  0  0  0  0  0  0  0  0  0  0
   11.2372   40.7887   33.3680 O   0  0  0  0  0  0  0  0  0  0  0  0
   10.9157   40.6880   31.9948 C   0  0  0  0  0  0  0  0  0  0  0  0
   11.5262   39.3870   31.4362 C   0  0  0  0  0  0  0  0  0  0  0  0
   12.7493   39.0892   32.0816 O   0  0  0  0  0  0  0  0  0  0  0  0
   10.6123   38.1893   31.6460 C   0  0  0  0  0  0  0  0  0  0  0  0
   12.9374   37.6826   32.0300 C   0  0  0  0  0  0  0  0  0  0  0  0
    9.6150   38.0838   30.6538 O   0  0  0  0  0  0  0  0  0  0  0  0
   11.5793   37.0136   31.7013 C   0  0  0  0  0  0  0  0  0  0  0  0
   13.4906   37.2169   33.3242 N   0  0  0  0  0  0  0  0  0  0  0  0
   11.6216   36.3252   30.4725 O   0  0  0  0  0  0  0  0  0  0  0  0
   14.4763   36.3266   33.5731 C   0  0  0  0  0  0  0  0  0  0  0  0
   13.1181   37.6308   34.5694 C   0  0  0  0  0  0  0  0  0  0  0  0
   15.2066   35.6137   32.6740 N   0  0  0  0  0  0  0  0  0  0  0  0
   14.6735   36.2270   34.9185 C   0  0  0  0  0  0  0  0  0  0  0  0
   13.8229   37.0451   35.5787 N   0  0  0  0  0  0  0  0  0  0  0  0
   16.1639   34.7593   33.1547 C   0  0  0  0  0  0  0  0  0  0  0  0
   15.6519   35.3489   35.4132 C   0  0  0  0  0  0  0  0  0  0  0  0
   16.3794   34.6308   34.5042 N   0  0  0  0  0  0  0  0  0  0  0  0
   15.9006   35.1931   36.8090 N   0  0  0  0  0  0  0  0  0  0  0  0
    9.8031   45.0071   32.1589 H   0  0  0  0  0  0  0  0  0  0  0  0
   11.2903   46.1164   34.4891 H   0  0  0  0  0  0  0  0  0  0  0  0
   11.9207   45.6879   32.9695 H   0  0  0  0  0  0  0  0  0  0  0  0
    8.6285   46.7944   33.6842 H   0  0  0  0  0  0  0  0  0  0  0  0
    8.7398   45.6096   35.0016 H   0  0  0  0  0  0  0  0  0  0  0  0
    6.7179   46.3600   30.3541 H   0  0  0  0  0  0  0  0  0  0  0  0
    8.2869   46.5159   31.1910 H   0  0  0  0  0  0  0  0  0  0  0  0
    8.5701   48.8153   31.8037 H   0  0  0  0  0  0  0  0  0  0  0  0
    4.6537   47.0471   32.2073 H   0  0  0  0  0  0  0  0  0  0  0  0
    7.7082   50.9184   32.7646 H   0  0  0  0  0  0  0  0  0  0  0  0
    3.8111   49.1605   33.1683 H   0  0  0  0  0  0  0  0  0  0  0  0
    5.3332   51.0964   33.4522 H   0  0  0  0  0  0  0  0  0  0  0  0
    9.8256   40.7182   31.7576 H   0  0  0  0  0  0  0  0  0  0  0  0
   11.3834   41.5502   31.4732 H   0  0  0  0  0  0  0  0  0  0  0  0
   11.7291   39.5286   30.3501 H   0  0  0  0  0  0  0  0  0  0  0  0
   10.1140   38.2719   32.6379 H   0  0  0  0  0  0  0  0  0  0  0  0
   13.6726   37.4633   31.2240 H   0  0  0  0  0  0  0  0  0  0  0  0
   10.0535   38.1084   29.7638 H   0  0  0  0  0  0  0  0  0  0  0  0
   11.2645   36.3134   32.5107 H   0  0  0  0  0  0  0  0  0  0  0  0
   12.1549   35.5031   30.6315 H   0  0  0  0  0  0  0  0  0  0  0  0
   12.3362   38.3586   34.7450 H   0  0  0  0  0  0  0  0  0  0  0  0
   16.7574   34.1788   32.4619 H   0  0  0  0  0  0  0  0  0  0  0  0
   15.3533   35.7353   37.5139 H   0  0  0  0  0  0  0  0  0  0  0  0
   16.6366   34.5314   37.1415 H   0  0  0  0  0  0  0  0  0  0  0  0
  1  2  2  0
  1  3  1  0
  3  4  1  0
  4  5  1  0
  6  1  1  0
  7  6  1  0
  6  8  1  0
  8  9  1  0
  9 10  1  0
  9 11  2  0
 10 12  1  0
 12 13  1  0
 13 14  2  0
 15 13  1  0
 14 16  1  0
 17 15  2  0
 16 18  2  0
 18 17  1  0
  4 19  2  0
  4 20  1  0
 21 20  1  0
 21 22  1  0
 22 23  1  0
 22 24  1  0
 23 25  1  0
 24 26  1  0
 24 27  1  0
 27 25  1  0
 25 28  1  0
 27 29  1  0
 30 28  1  0
 31 28  1  0
 32 30  2  0
 30 33  1  0
 34 31  2  0
 35 32  1  0
 33 36  2  0
 33 34  1  0
 37 35  2  0
 37 36  1  0
 36 38  1  0
  6 39  1  6
  7 40  1  0
  7 41  1  0
  8 42  1  0
  8 43  1  0
 12 44  1  0
 12 45  1  0
 14 46  1  0
 15 47  1  0
 16 48  1  0
 17 49  1  0
 18 50  1  0
 21 51  1  0
 21 52  1  0
 22 53  1  0
 24 54  1  0
 25 55  1  0
 26 56  1  0
 27 57  1  0
 29 58  1  0
 31 59  1  0
 35 60  1  0
 38 61  1  0
 38 62  1  0
M  CHG  1   5  -1
M  END
>  <EmbedRMS>  (239) 
0.08864375425716128

$$$$

     RDKit          3D

 62 65  0  0  0  0  0  0  0  0999 V2000
   10.2816   43.7736   33.8048 C   0  0  0  0  0  0  0  0  0  0  0  0
   11.4034   43.5898   34.3635 O   0  0  0  0  0  0  0  0  0  0  0  0
    9.3665   42.7296   33.6974 O   0  0  0  0  0  0  0  0  0  0  0  0
    9.8872   41.2343   34.2834 P   0  0  0  0  0  5  0  0  0  0  0  0
   10.3685   41.4717   35.8733 O   0  0  0  0  0  1  0  0  0  0  0  0
    9.9555   45.1159   33.2418 C   0  0  2  0  0  0  0  0  0  0  0  0
   11.0747   46.0280   33.4853 N   0  0  0  0  0  0  0  0  0  0  0  0
    8.6709   45.6804   33.8853 C   0  0  0  0  0  0  0  0  0  0  0  0
    7.4384   45.0511   33.3103 C   0  0  0  0  0  0  0  0  0  0  0  0
    6.7183   44.1168   34.0646 O   0  0  0  0  0  0  0  0  0  0  0  0
    7.0593   45.3771   32.1522 O   0  0  0  0  0  0  0  0  0  0  0  0
    5.5566   43.4415   33.5835 C   0  0  0  0  0  0  0  0  0  0  0  0
    5.9305   42.1177   32.9715 C   0  0  0  0  0  0  0  0  0  0  0  0
    6.5681   42.0658   31.7203 C   0  0  0  0  0  0  0  0  0  0  0  0
    5.6424   40.9175   33.6446 C   0  0  0  0  0  0  0  0  0  0  0  0
    6.9035   40.8339   31.1498 C   0  0  0  0  0  0  0  0  0  0  0  0
    5.9694   39.6876   33.0650 C   0  0  0  0  0  0  0  0  0  0  0  0
    6.6003   39.6459   31.8193 C   0  0  0  0  0  0  0  0  0  0  0  0
    8.8137   40.1884   34.2126 O   0  0  0  0  0  0  0  0  0  0  0  0
   11.2379   40.7914   33.3655 O   0  0  0  0  0  0  0  0  0  0  0  0
   10.9131   40.6849   31.9933 C   0  0  0  0  0  0  0  0  0  0  0  0
   11.5157   39.3776   31.4394 C   0  0  0  0  0  0  0  0  0  0  0  0
   12.7463   39.0857   32.0741 O   0  0  0  0  0  0  0  0  0  0  0  0
   10.6038   38.1868   31.6661 C   0  0  0  0  0  0  0  0  0  0  0  0
   12.9341   37.6794   32.0283 C   0  0  0  0  0  0  0  0  0  0  0  0
    9.6384   38.0916   30.6470 O   0  0  0  0  0  0  0  0  0  0  0  0
   11.5758   37.0131   31.7059 C   0  0  0  0  0  0  0  0  0  0  0  0
   13.4908   37.2179   33.3234 N   0  0  0  0  0  0  0  0  0  0  0  0
   11.6236   36.3368   30.4688 O   0  0  0  0  0  0  0  0  0  0  0  0
   14.4764   36.3273   33.5727 C   0  0  0  0  0  0  0  0  0  0  0  0
   13.1180   37.6316   34.5686 C   0  0  0  0  0  0  0  0  0  0  0  0
   15.2065   35.6139   32.6739 N   0  0  0  0  0  0  0  0  0  0  0  0
   14.6735   36.2277   34.9181 C   0  0  0  0  0  0  0  0  0  0  0  0
   13.8226   37.0458   35.5781 N   0  0  0  0  0  0  0  0  0  0  0  0
   16.1637   34.7594   33.1547 C   0  0  0  0  0  0  0  0  0  0  0  0
   15.6516   35.3493   35.4130 C   0  0  0  0  0  0  0  0  0  0  0  0
   16.3791   34.6310   34.5042 N   0  0  0  0  0  0  0  0  0  0  0  0
   15.9002   35.1934   36.8089 N   0  0  0  0  0  0  0  0  0  0  0  0
    9.8107   45.0129   32.1418 H   0  0  0  0  0  0  0  0  0  0  0  0
   10.8417   46.9594   33.0698 H   0  0  0  0  0  0  0  0  0  0  0  0
   11.9033   45.6880   32.9432 H   0  0  0  0  0  0  0  0  0  0  0  0
    8.6927   45.5337   34.9877 H   0  0  0  0  0  0  0  0  0  0  0  0
    8.6046   46.7751   33.7032 H   0  0  0  0  0  0  0  0  0  0  0  0
    5.0057   44.0651   32.8460 H   0  0  0  0  0  0  0  0  0  0  0  0
    4.8678   43.2853   34.4408 H   0  0  0  0  0  0  0  0  0  0  0  0
    6.7988   42.9744   31.1812 H   0  0  0  0  0  0  0  0  0  0  0  0
    5.1586   40.9316   34.6132 H   0  0  0  0  0  0  0  0  0  0  0  0
    7.3955   40.8001   30.1863 H   0  0  0  0  0  0  0  0  0  0  0  0
    5.7394   38.7666   33.5849 H   0  0  0  0  0  0  0  0  0  0  0  0
    6.8535   38.6934   31.3736 H   0  0  0  0  0  0  0  0  0  0  0  0
   11.3839   41.5418   31.4658 H   0  0  0  0  0  0  0  0  0  0  0  0
    9.8231   40.7199   31.7584 H   0  0  0  0  0  0  0  0  0  0  0  0
   11.6979   39.5020   30.3469 H   0  0  0  0  0  0  0  0  0  0  0  0
   10.1057   38.2770   32.6605 H   0  0  0  0  0  0  0  0  0  0  0  0
   13.6667   37.4551   31.2213 H   0  0  0  0  0  0  0  0  0  0  0  0
    8.9973   37.3914   30.9361 H   0  0  0  0  0  0  0  0  0  0  0  0
   11.2855   36.3049   32.5183 H   0  0  0  0  0  0  0  0  0  0  0  0
   10.8734   35.6868   30.4686 H   0  0  0  0  0  0  0  0  0  0  0  0
   12.3353   38.3587   34.7441 H   0  0  0  0  0  0  0  0  0  0  0  0
   16.7570   34.1787   32.4620 H   0  0  0  0  0  0  0  0  0  0  0  0
   15.3530   35.7358   37.5137 H   0  0  0  0  0  0  0  0  0  0  0  0
   16.6360   34.5315   37.1414 H   0  0  0  0  0  0  0  0  0  0  0  0
  1  2  2  0
  1  3  1  0
  3  4  1  0
  4  5  1  0
  6  1  1  0
  7  6  1  0
  6  8  1  0
  8  9  1  0
  9 10  1  0
  9 11  2  0
 10 12  1  0
 12 13  1  0
 13 14  2  0
 15 13  1  0
 14 16  1  0
 17 15  2  0
 16 18  2  0
 18 17  1  0
  4 19  2  0
  4 20  1  0
 21 20  1  0
 21 22  1  0
 22 23  1  0
 22 24  1  0
 23 25  1  0
 24 26  1  0
 24 27  1  0
 27 25  1  0
 25 28  1  0
 27 29  1  0
 30 28  1  0
 31 28  1  0
 32 30  2  0
 30 33  1  0
 34 31  2  0
 35 32  1  0
 33 36  2  0
 33 34  1  0
 37 35  2  0
 37 36  1  0
 36 38  1  0
  6 39  1  6
  7 40  1  0
  7 41  1  0
  8 42  1  0
  8 43  1  0
 12 44  1  0
 12 45  1  0
 14 46  1  0
 15 47  1  0
 16 48  1  0
 17 49  1  0
 18 50  1  0
 21 51  1  0
 21 52  1  0
 22 53  1  0
 24 54  1  0
 25 55  1  0
 26 56  1  0
 27 57  1  0
 29 58  1  0
 31 59  1  0
 35 60  1  0
 38 61  1  0
 38 62  1  0
M  CHG  1   5  -1
M  END
>  <EmbedRMS>  (240) 
0.0883439044281663

$$$$

     RDKit          3D

 62 65  0  0  0  0  0  0  0  0999 V2000
   10.2799   43.7760   33.8079 C   0  0  0  0  0  0  0  0  0  0  0  0
   11.4058   43.5914   34.3579 O   0  0  0  0  0  0  0  0  0  0  0  0
    9.3676   42.7299   33.6983 O   0  0  0  0  0  0  0  0  0  0  0  0
    9.8866   41.2342   34.2840 P   0  0  0  0  0  5  0  0  0  0  0  0
   10.3668   41.4707   35.8743 O   0  0  0  0  0  1  0  0  0  0  0  0
    9.9518   45.1176   33.2461 C   0  0  2  0  0  0  0  0  0  0  0  0
   11.0762   46.0248   33.4836 N   0  0  0  0  0  0  0  0  0  0  0  0
    8.6556   45.6924   33.8610 C   0  0  0  0  0  0  0  0  0  0  0  0
    7.4313   45.0258   33.3115 C   0  0  0  0  0  0  0  0  0  0  0  0
    6.8360   43.9811   34.0232 O   0  0  0  0  0  0  0  0  0  0  0  0
    6.9659   45.3927   32.1979 O   0  0  0  0  0  0  0  0  0  0  0  0
    5.6789   43.2955   33.5581 C   0  0  0  0  0  0  0  0  0  0  0  0
    5.3645   42.1659   34.4941 C   0  0  0  0  0  0  0  0  0  0  0  0
    4.8011   42.4326   35.7524 C   0  0  0  0  0  0  0  0  0  0  0  0
    5.6784   40.8415   34.1461 C   0  0  0  0  0  0  0  0  0  0  0  0
    4.5407   41.3865   36.6432 C   0  0  0  0  0  0  0  0  0  0  0  0
    5.4176   39.7984   35.0401 C   0  0  0  0  0  0  0  0  0  0  0  0
    4.8480   40.0703   36.2870 C   0  0  0  0  0  0  0  0  0  0  0  0
    8.8115   40.1893   34.2093 O   0  0  0  0  0  0  0  0  0  0  0  0
   11.2378   40.7917   33.3670 O   0  0  0  0  0  0  0  0  0  0  0  0
   10.9134   40.6861   31.9947 C   0  0  0  0  0  0  0  0  0  0  0  0
   11.5167   39.3798   31.4410 C   0  0  0  0  0  0  0  0  0  0  0  0
   12.7486   39.0886   32.0762 O   0  0  0  0  0  0  0  0  0  0  0  0
   10.6049   38.1877   31.6661 C   0  0  0  0  0  0  0  0  0  0  0  0
   12.9410   37.6829   32.0278 C   0  0  0  0  0  0  0  0  0  0  0  0
    9.6356   38.0931   30.6505 O   0  0  0  0  0  0  0  0  0  0  0  0
   11.5825   37.0180   31.6937 C   0  0  0  0  0  0  0  0  0  0  0  0
   13.4908   37.2177   33.3239 N   0  0  0  0  0  0  0  0  0  0  0  0
   11.6138   36.3181   30.4676 O   0  0  0  0  0  0  0  0  0  0  0  0
   14.4762   36.3270   33.5733 C   0  0  0  0  0  0  0  0  0  0  0  0
   13.1178   37.6316   34.5689 C   0  0  0  0  0  0  0  0  0  0  0  0
   15.2067   35.6140   32.6743 N   0  0  0  0  0  0  0  0  0  0  0  0
   14.6731   36.2273   34.9186 C   0  0  0  0  0  0  0  0  0  0  0  0
   13.8222   37.0456   35.5785 N   0  0  0  0  0  0  0  0  0  0  0  0
   16.1639   34.7595   33.1550 C   0  0  0  0  0  0  0  0  0  0  0  0
   15.6515   35.3491   35.4134 C   0  0  0  0  0  0  0  0  0  0  0  0
   16.3792   34.6310   34.5045 N   0  0  0  0  0  0  0  0  0  0  0  0
   15.9002   35.1933   36.8092 N   0  0  0  0  0  0  0  0  0  0  0  0
    9.8223   45.0051   32.1463 H   0  0  0  0  0  0  0  0  0  0  0  0
   11.1086   46.2860   34.4970 H   0  0  0  0  0  0  0  0  0  0  0  0
   10.9161   46.9051   32.9415 H   0  0  0  0  0  0  0  0  0  0  0  0
    8.5861   46.7791   33.6359 H   0  0  0  0  0  0  0  0  0  0  0  0
    8.6740   45.5857   34.9679 H   0  0  0  0  0  0  0  0  0  0  0  0
    5.8588   42.9110   32.5298 H   0  0  0  0  0  0  0  0  0  0  0  0
    4.8192   43.9993   33.5180 H   0  0  0  0  0  0  0  0  0  0  0  0
    4.5673   43.4495   36.0430 H   0  0  0  0  0  0  0  0  0  0  0  0
    6.1279   40.6164   33.1868 H   0  0  0  0  0  0  0  0  0  0  0  0
    4.1043   41.5966   37.6111 H   0  0  0  0  0  0  0  0  0  0  0  0
    5.6609   38.7795   34.7675 H   0  0  0  0  0  0  0  0  0  0  0  0
    4.6481   39.2619   36.9784 H   0  0  0  0  0  0  0  0  0  0  0  0
   11.3845   41.5434   31.4681 H   0  0  0  0  0  0  0  0  0  0  0  0
    9.8230   40.7207   31.7590 H   0  0  0  0  0  0  0  0  0  0  0  0
   11.6991   39.5065   30.3488 H   0  0  0  0  0  0  0  0  0  0  0  0
   10.1119   38.2724   32.6634 H   0  0  0  0  0  0  0  0  0  0  0  0
   13.6814   37.4632   31.2269 H   0  0  0  0  0  0  0  0  0  0  0  0
    9.0019   37.3847   30.9364 H   0  0  0  0  0  0  0  0  0  0  0  0
   11.2844   36.3041   32.4930 H   0  0  0  0  0  0  0  0  0  0  0  0
   11.8845   36.9591   29.7589 H   0  0  0  0  0  0  0  0  0  0  0  0
   12.3362   38.3598   34.7441 H   0  0  0  0  0  0  0  0  0  0  0  0
   16.7574   34.1791   32.4623 H   0  0  0  0  0  0  0  0  0  0  0  0
   15.3529   35.7355   37.5141 H   0  0  0  0  0  0  0  0  0  0  0  0
   16.6362   34.5317   37.1417 H   0  0  0  0  0  0  0  0  0  0  0  0
  1  2  2  0
  1  3  1  0
  3  4  1  0
  4  5  1  0
  6  1  1  0
  7  6  1  0
  6  8  1  0
  8  9  1  0
  9 10  1  0
  9 11  2  0
 10 12  1  0
 12 13  1  0
 13 14  2  0
 15 13  1  0
 14 16  1  0
 17 15  2  0
 16 18  2  0
 18 17  1  0
  4 19  2  0
  4 20  1  0
 21 20  1  0
 21 22  1  0
 22 23  1  0
 22 24  1  0
 23 25  1  0
 24 26  1  0
 24 27  1  0
 27 25  1  0
 25 28  1  0
 27 29  1  0
 30 28  1  0
 31 28  1  0
 32 30  2  0
 30 33  1  0
 34 31  2  0
 35 32  1  0
 33 36  2  0
 33 34  1  0
 37 35  2  0
 37 36  1  0
 36 38  1  0
  6 39  1  6
  7 40  1  0
  7 41  1  0
  8 42  1  0
  8 43  1  0
 12 44  1  0
 12 45  1  0
 14 46  1  0
 15 47  1  0
 16 48  1  0
 17 49  1  0
 18 50  1  0
 21 51  1  0
 21 52  1  0
 22 53  1  0
 24 54  1  0
 25 55  1  0
 26 56  1  0
 27 57  1  0
 29 58  1  0
 31 59  1  0
 35 60  1  0
 38 61  1  0
 38 62  1  0
M  CHG  1   5  -1
M  END
>  <EmbedRMS>  (241) 
0.08758656305933289

$$$$

     RDKit          3D

 62 65  0  0  0  0  0  0  0  0999 V2000
   10.2822   43.7739   33.8113 C   0  0  0  0  0  0  0  0  0  0  0  0
   11.4085   43.5881   34.3592 O   0  0  0  0  0  0  0  0  0  0  0  0
    9.3705   42.7294   33.6946 O   0  0  0  0  0  0  0  0  0  0  0  0
    9.8864   41.2337   34.2830 P   0  0  0  0  0  5  0  0  0  0  0  0
   10.3653   41.4712   35.8738 O   0  0  0  0  0  1  0  0  0  0  0  0
    9.9515   45.1152   33.2576 C   0  0  2  0  0  0  0  0  0  0  0  0
   11.0730   46.0330   33.4730 N   0  0  0  0  0  0  0  0  0  0  0  0
    8.6217   45.6761   33.8225 C   0  0  0  0  0  0  0  0  0  0  0  0
    8.5730   45.7304   35.3343 C   0  0  0  0  0  0  0  0  0  0  0  0
    7.7965   44.8542   36.1055 O   0  0  0  0  0  0  0  0  0  0  0  0
    9.2543   46.6030   35.9337 O   0  0  0  0  0  0  0  0  0  0  0  0
    6.7821   43.9981   35.5888 C   0  0  0  0  0  0  0  0  0  0  0  0
    6.1609   43.2336   36.7202 C   0  0  0  0  0  0  0  0  0  0  0  0
    6.6942   41.9954   37.1151 C   0  0  0  0  0  0  0  0  0  0  0  0
    5.0833   43.7798   37.4367 C   0  0  0  0  0  0  0  0  0  0  0  0
    6.1375   41.3010   38.1936 C   0  0  0  0  0  0  0  0  0  0  0  0
    4.5293   43.0821   38.5148 C   0  0  0  0  0  0  0  0  0  0  0  0
    5.0544   41.8427   38.8915 C   0  0  0  0  0  0  0  0  0  0  0  0
    8.8080   40.1917   34.2076 O   0  0  0  0  0  0  0  0  0  0  0  0
   11.2389   40.7883   33.3690 O   0  0  0  0  0  0  0  0  0  0  0  0
   10.9202   40.6891   31.9950 C   0  0  0  0  0  0  0  0  0  0  0  0
   11.5174   39.3799   31.4395 C   0  0  0  0  0  0  0  0  0  0  0  0
   12.7482   39.0859   32.0730 O   0  0  0  0  0  0  0  0  0  0  0  0
   10.6032   38.1891   31.6666 C   0  0  0  0  0  0  0  0  0  0  0  0
   12.9336   37.6794   32.0279 C   0  0  0  0  0  0  0  0  0  0  0  0
    9.6397   38.0777   30.6457 O   0  0  0  0  0  0  0  0  0  0  0  0
   11.5739   37.0153   31.7057 C   0  0  0  0  0  0  0  0  0  0  0  0
   13.4903   37.2177   33.3231 N   0  0  0  0  0  0  0  0  0  0  0  0
   11.6210   36.3375   30.4695 O   0  0  0  0  0  0  0  0  0  0  0  0
   14.4761   36.3273   33.5725 C   0  0  0  0  0  0  0  0  0  0  0  0
   13.1178   37.6316   34.5684 C   0  0  0  0  0  0  0  0  0  0  0  0
   15.2063   35.6138   32.6737 N   0  0  0  0  0  0  0  0  0  0  0  0
   14.6733   36.2277   34.9180 C   0  0  0  0  0  0  0  0  0  0  0  0
   13.8225   37.0459   35.5779 N   0  0  0  0  0  0  0  0  0  0  0  0
   16.1636   34.7594   33.1546 C   0  0  0  0  0  0  0  0  0  0  0  0
   15.6515   35.3494   35.4129 C   0  0  0  0  0  0  0  0  0  0  0  0
   16.3791   34.6311   34.5041 N   0  0  0  0  0  0  0  0  0  0  0  0
   15.9001   35.1935   36.8088 N   0  0  0  0  0  0  0  0  0  0  0  0
    9.8229   44.9899   32.1601 H   0  0  0  0  0  0  0  0  0  0  0  0
   11.2253   46.1943   34.4940 H   0  0  0  0  0  0  0  0  0  0  0  0
   10.8446   46.9560   33.0371 H   0  0  0  0  0  0  0  0  0  0  0  0
    7.7821   45.0734   33.4214 H   0  0  0  0  0  0  0  0  0  0  0  0
    8.4657   46.7038   33.4293 H   0  0  0  0  0  0  0  0  0  0  0  0
    7.2125   43.2883   34.8544 H   0  0  0  0  0  0  0  0  0  0  0  0
    6.0080   44.6055   35.0708 H   0  0  0  0  0  0  0  0  0  0  0  0
    7.5388   41.5687   36.5892 H   0  0  0  0  0  0  0  0  0  0  0  0
    4.6736   44.7437   37.1611 H   0  0  0  0  0  0  0  0  0  0  0  0
    6.5481   40.3447   38.4906 H   0  0  0  0  0  0  0  0  0  0  0  0
    3.6954   43.5041   39.0607 H   0  0  0  0  0  0  0  0  0  0  0  0
    4.6254   41.3046   39.7269 H   0  0  0  0  0  0  0  0  0  0  0  0
    9.8325   40.7398   31.7544 H   0  0  0  0  0  0  0  0  0  0  0  0
   11.4026   41.5435   31.4739 H   0  0  0  0  0  0  0  0  0  0  0  0
   11.6983   39.5042   30.3468 H   0  0  0  0  0  0  0  0  0  0  0  0
   10.1092   38.2633   32.6650 H   0  0  0  0  0  0  0  0  0  0  0  0
   13.6656   37.4536   31.2207 H   0  0  0  0  0  0  0  0  0  0  0  0
    8.8966   38.6901   30.8853 H   0  0  0  0  0  0  0  0  0  0  0  0
   11.2845   36.3059   32.5175 H   0  0  0  0  0  0  0  0  0  0  0  0
   10.8522   35.7094   30.4590 H   0  0  0  0  0  0  0  0  0  0  0  0
   12.3352   38.3587   34.7439 H   0  0  0  0  0  0  0  0  0  0  0  0
   16.7570   34.1788   32.4619 H   0  0  0  0  0  0  0  0  0  0  0  0
   16.6360   34.5317   37.1414 H   0  0  0  0  0  0  0  0  0  0  0  0
   15.3529   35.7359   37.5136 H   0  0  0  0  0  0  0  0  0  0  0  0
  1  2  2  0
  1  3  1  0
  3  4  1  0
  4  5  1  0
  6  1  1  0
  7  6  1  0
  6  8  1  0
  8  9  1  0
  9 10  1  0
  9 11  2  0
 10 12  1  0
 12 13  1  0
 13 14  2  0
 15 13  1  0
 14 16  1  0
 17 15  2  0
 16 18  2  0
 18 17  1  0
  4 19  2  0
  4 20  1  0
 21 20  1  0
 21 22  1  0
 22 23  1  0
 22 24  1  0
 23 25  1  0
 24 26  1  0
 24 27  1  0
 27 25  1  0
 25 28  1  0
 27 29  1  0
 30 28  1  0
 31 28  1  0
 32 30  2  0
 30 33  1  0
 34 31  2  0
 35 32  1  0
 33 36  2  0
 33 34  1  0
 37 35  2  0
 37 36  1  0
 36 38  1  0
  6 39  1  6
  7 40  1  0
  7 41  1  0
  8 42  1  0
  8 43  1  0
 12 44  1  0
 12 45  1  0
 14 46  1  0
 15 47  1  0
 16 48  1  0
 17 49  1  0
 18 50  1  0
 21 51  1  0
 21 52  1  0
 22 53  1  0
 24 54  1  0
 25 55  1  0
 26 56  1  0
 27 57  1  0
 29 58  1  0
 31 59  1  0
 35 60  1  0
 38 61  1  0
 38 62  1  0
M  CHG  1   5  -1
M  END
>  <EmbedRMS>  (242) 
0.08962409715258216

$$$$

     RDKit          3D

 62 65  0  0  0  0  0  0  0  0999 V2000
   10.2830   43.7718   33.8103 C   0  0  0  0  0  0  0  0  0  0  0  0
   11.4069   43.5824   34.3623 O   0  0  0  0  0  0  0  0  0  0  0  0
    9.3682   42.7285   33.6979 O   0  0  0  0  0  0  0  0  0  0  0  0
    9.8853   41.2323   34.2839 P   0  0  0  0  0  5  0  0  0  0  0  0
   10.3650   41.4690   35.8744 O   0  0  0  0  0  1  0  0  0  0  0  0
    9.9570   45.1194   33.2526 C   0  0  2  0  0  0  0  0  0  0  0  0
   11.0712   46.0440   33.4714 N   0  0  0  0  0  0  0  0  0  0  0  0
    8.6819   45.7047   33.8898 C   0  0  0  0  0  0  0  0  0  0  0  0
    7.4407   45.0371   33.3811 C   0  0  0  0  0  0  0  0  0  0  0  0
    6.8585   44.0060   34.1231 O   0  0  0  0  0  0  0  0  0  0  0  0
    6.9486   45.3905   32.2746 O   0  0  0  0  0  0  0  0  0  0  0  0
    5.6853   43.3212   33.6990 C   0  0  0  0  0  0  0  0  0  0  0  0
    5.3884   42.2085   34.6606 C   0  0  0  0  0  0  0  0  0  0  0  0
    4.8676   42.4993   35.9318 C   0  0  0  0  0  0  0  0  0  0  0  0
    5.6765   40.8758   34.3221 C   0  0  0  0  0  0  0  0  0  0  0  0
    4.6242   41.4689   36.8455 C   0  0  0  0  0  0  0  0  0  0  0  0
    5.4330   39.8485   35.2390 C   0  0  0  0  0  0  0  0  0  0  0  0
    4.9060   40.1445   36.4992 C   0  0  0  0  0  0  0  0  0  0  0  0
    8.8099   40.1880   34.2084 O   0  0  0  0  0  0  0  0  0  0  0  0
   11.2373   40.7893   33.3682 O   0  0  0  0  0  0  0  0  0  0  0  0
   10.9152   40.6880   31.9951 C   0  0  0  0  0  0  0  0  0  0  0  0
   11.5259   39.3870   31.4365 C   0  0  0  0  0  0  0  0  0  0  0  0
   12.7491   39.0892   32.0818 O   0  0  0  0  0  0  0  0  0  0  0  0
   10.6121   38.1893   31.6462 C   0  0  0  0  0  0  0  0  0  0  0  0
   12.9372   37.6827   32.0301 C   0  0  0  0  0  0  0  0  0  0  0  0
    9.6148   38.0839   30.6539 O   0  0  0  0  0  0  0  0  0  0  0  0
   11.5791   37.0136   31.7014 C   0  0  0  0  0  0  0  0  0  0  0  0
   13.4906   37.2170   33.3242 N   0  0  0  0  0  0  0  0  0  0  0  0
   11.6215   36.3253   30.4725 O   0  0  0  0  0  0  0  0  0  0  0  0
   14.4763   36.3266   33.5731 C   0  0  0  0  0  0  0  0  0  0  0  0
   13.1181   37.6308   34.5694 C   0  0  0  0  0  0  0  0  0  0  0  0
   15.2065   35.6137   32.6740 N   0  0  0  0  0  0  0  0  0  0  0  0
   14.6735   36.2270   34.9185 C   0  0  0  0  0  0  0  0  0  0  0  0
   13.8228   37.0451   35.5787 N   0  0  0  0  0  0  0  0  0  0  0  0
   16.1639   34.7593   33.1547 C   0  0  0  0  0  0  0  0  0  0  0  0
   15.6518   35.3489   35.4132 C   0  0  0  0  0  0  0  0  0  0  0  0
   16.3794   34.6308   34.5042 N   0  0  0  0  0  0  0  0  0  0  0  0
   15.9006   35.1931   36.8090 N   0  0  0  0  0  0  0  0  0  0  0  0
    9.8024   45.0171   32.1553 H   0  0  0  0  0  0  0  0  0  0  0  0
   11.2874   46.1148   34.4935 H   0  0  0  0  0  0  0  0  0  0  0  0
   11.9219   45.6903   32.9746 H   0  0  0  0  0  0  0  0  0  0  0  0
    8.7285   45.6135   34.9974 H   0  0  0  0  0  0  0  0  0  0  0  0
    8.6149   46.7887   33.6504 H   0  0  0  0  0  0  0  0  0  0  0  0
    4.8293   44.0300   33.6706 H   0  0  0  0  0  0  0  0  0  0  0  0
    5.8358   42.9199   32.6725 H   0  0  0  0  0  0  0  0  0  0  0  0
    4.6539   43.5228   36.2147 H   0  0  0  0  0  0  0  0  0  0  0  0
    6.0923   40.6320   33.3523 H   0  0  0  0  0  0  0  0  0  0  0  0
    4.2207   41.6976   37.8235 H   0  0  0  0  0  0  0  0  0  0  0  0
    5.6563   38.8232   34.9737 H   0  0  0  0  0  0  0  0  0  0  0  0
    4.7193   39.3483   37.2081 H   0  0  0  0  0  0  0  0  0  0  0  0
   11.3824   41.5503   31.4731 H   0  0  0  0  0  0  0  0  0  0  0  0
    9.8250   40.7179   31.7583 H   0  0  0  0  0  0  0  0  0  0  0  0
   11.7288   39.5288   30.3504 H   0  0  0  0  0  0  0  0  0  0  0  0
   10.1137   38.2719   32.6381 H   0  0  0  0  0  0  0  0  0  0  0  0
   13.6724   37.4635   31.2240 H   0  0  0  0  0  0  0  0  0  0  0  0
   10.0533   38.1086   29.7640 H   0  0  0  0  0  0  0  0  0  0  0  0
   11.2644   36.3134   32.5108 H   0  0  0  0  0  0  0  0  0  0  0  0
   12.1547   35.5032   30.6316 H   0  0  0  0  0  0  0  0  0  0  0  0
   12.3360   38.3585   34.7450 H   0  0  0  0  0  0  0  0  0  0  0  0
   16.7573   34.1788   32.4619 H   0  0  0  0  0  0  0  0  0  0  0  0
   15.3533   35.7353   37.5139 H   0  0  0  0  0  0  0  0  0  0  0  0
   16.6366   34.5314   37.1415 H   0  0  0  0  0  0  0  0  0  0  0  0
  1  2  2  0
  1  3  1  0
  3  4  1  0
  4  5  1  0
  6  1  1  0
  7  6  1  0
  6  8  1  0
  8  9  1  0
  9 10  1  0
  9 11  2  0
 10 12  1  0
 12 13  1  0
 13 14  2  0
 15 13  1  0
 14 16  1  0
 17 15  2  0
 16 18  2  0
 18 17  1  0
  4 19  2  0
  4 20  1  0
 21 20  1  0
 21 22  1  0
 22 23  1  0
 22 24  1  0
 23 25  1  0
 24 26  1  0
 24 27  1  0
 27 25  1  0
 25 28  1  0
 27 29  1  0
 30 28  1  0
 31 28  1  0
 32 30  2  0
 30 33  1  0
 34 31  2  0
 35 32  1  0
 33 36  2  0
 33 34  1  0
 37 35  2  0
 37 36  1  0
 36 38  1  0
  6 39  1  6
  7 40  1  0
  7 41  1  0
  8 42  1  0
  8 43  1  0
 12 44  1  0
 12 45  1  0
 14 46  1  0
 15 47  1  0
 16 48  1  0
 17 49  1  0
 18 50  1  0
 21 51  1  0
 21 52  1  0
 22 53  1  0
 24 54  1  0
 25 55  1  0
 26 56  1  0
 27 57  1  0
 29 58  1  0
 31 59  1  0
 35 60  1  0
 38 61  1  0
 38 62  1  0
M  CHG  1   5  -1
M  END
>  <EmbedRMS>  (243) 
0.08845953943527791

$$$$

     RDKit          3D

 62 65  0  0  0  0  0  0  0  0999 V2000
   10.2845   43.7741   33.8068 C   0  0  0  0  0  0  0  0  0  0  0  0
   11.4068   43.5903   34.3638 O   0  0  0  0  0  0  0  0  0  0  0  0
    9.3683   42.7308   33.6985 O   0  0  0  0  0  0  0  0  0  0  0  0
    9.8864   41.2339   34.2831 P   0  0  0  0  0  5  0  0  0  0  0  0
   10.3659   41.4695   35.8740 O   0  0  0  0  0  1  0  0  0  0  0  0
    9.9493   45.1162   33.2546 C   0  0  2  0  0  0  0  0  0  0  0  0
   11.0754   46.0282   33.4733 N   0  0  0  0  0  0  0  0  0  0  0  0
    8.6772   45.6526   33.9411 C   0  0  0  0  0  0  0  0  0  0  0  0
    8.1877   46.9085   33.2895 C   0  0  0  0  0  0  0  0  0  0  0  0
    8.4665   48.1451   33.8820 O   0  0  0  0  0  0  0  0  0  0  0  0
    7.5586   46.8427   32.1982 O   0  0  0  0  0  0  0  0  0  0  0  0
    8.1698   49.3936   33.2611 C   0  0  0  0  0  0  0  0  0  0  0  0
    9.1120   49.6406   32.1148 C   0  0  0  0  0  0  0  0  0  0  0  0
   10.4707   49.8909   32.3668 C   0  0  0  0  0  0  0  0  0  0  0  0
    8.6566   49.5822   30.7870 C   0  0  0  0  0  0  0  0  0  0  0  0
   11.3591   50.0887   31.3053 C   0  0  0  0  0  0  0  0  0  0  0  0
    9.5482   49.7815   29.7282 C   0  0  0  0  0  0  0  0  0  0  0  0
   10.8981   50.0350   29.9870 C   0  0  0  0  0  0  0  0  0  0  0  0
    8.8088   40.1911   34.2072 O   0  0  0  0  0  0  0  0  0  0  0  0
   11.2391   40.7899   33.3683 O   0  0  0  0  0  0  0  0  0  0  0  0
   10.9199   40.6894   31.9945 C   0  0  0  0  0  0  0  0  0  0  0  0
   11.5173   39.3800   31.4395 C   0  0  0  0  0  0  0  0  0  0  0  0
   12.7480   39.0860   32.0731 O   0  0  0  0  0  0  0  0  0  0  0  0
   10.6032   38.1891   31.6666 C   0  0  0  0  0  0  0  0  0  0  0  0
   12.9336   37.6795   32.0279 C   0  0  0  0  0  0  0  0  0  0  0  0
    9.6397   38.0777   30.6456 O   0  0  0  0  0  0  0  0  0  0  0  0
   11.5739   37.0153   31.7057 C   0  0  0  0  0  0  0  0  0  0  0  0
   13.4903   37.2177   33.3231 N   0  0  0  0  0  0  0  0  0  0  0  0
   11.6210   36.3376   30.4695 O   0  0  0  0  0  0  0  0  0  0  0  0
   14.4761   36.3273   33.5725 C   0  0  0  0  0  0  0  0  0  0  0  0
   13.1179   37.6316   34.5684 C   0  0  0  0  0  0  0  0  0  0  0  0
   15.2063   35.6139   32.6737 N   0  0  0  0  0  0  0  0  0  0  0  0
   14.6734   36.2277   34.9180 C   0  0  0  0  0  0  0  0  0  0  0  0
   13.8225   37.0459   35.5779 N   0  0  0  0  0  0  0  0  0  0  0  0
   16.1636   34.7594   33.1546 C   0  0  0  0  0  0  0  0  0  0  0  0
   15.6515   35.3494   35.4129 C   0  0  0  0  0  0  0  0  0  0  0  0
   16.3791   34.6311   34.5041 N   0  0  0  0  0  0  0  0  0  0  0  0
   15.9001   35.1935   36.8088 N   0  0  0  0  0  0  0  0  0  0  0  0
    9.7644   45.0046   32.1619 H   0  0  0  0  0  0  0  0  0  0  0  0
   11.8966   45.6756   32.9284 H   0  0  0  0  0  0  0  0  0  0  0  0
   10.8474   46.9536   33.0441 H   0  0  0  0  0  0  0  0  0  0  0  0
    7.8641   44.8959   33.8852 H   0  0  0  0  0  0  0  0  0  0  0  0
    8.8822   45.8491   35.0165 H   0  0  0  0  0  0  0  0  0  0  0  0
    8.2951   50.2023   34.0118 H   0  0  0  0  0  0  0  0  0  0  0  0
    7.1079   49.4123   32.9309 H   0  0  0  0  0  0  0  0  0  0  0  0
   10.8408   49.9264   33.3841 H   0  0  0  0  0  0  0  0  0  0  0  0
    7.6151   49.3791   30.5710 H   0  0  0  0  0  0  0  0  0  0  0  0
   12.4054   50.2807   31.5047 H   0  0  0  0  0  0  0  0  0  0  0  0
    9.1932   49.7363   28.7068 H   0  0  0  0  0  0  0  0  0  0  0  0
   11.5871   50.1872   29.1663 H   0  0  0  0  0  0  0  0  0  0  0  0
   11.4019   41.5436   31.4726 H   0  0  0  0  0  0  0  0  0  0  0  0
    9.8321   40.7398   31.7543 H   0  0  0  0  0  0  0  0  0  0  0  0
   11.6984   39.5040   30.3468 H   0  0  0  0  0  0  0  0  0  0  0  0
   10.1091   38.2633   32.6649 H   0  0  0  0  0  0  0  0  0  0  0  0
   13.6656   37.4538   31.2207 H   0  0  0  0  0  0  0  0  0  0  0  0
    8.8966   38.6901   30.8851 H   0  0  0  0  0  0  0  0  0  0  0  0
   11.2845   36.3060   32.5175 H   0  0  0  0  0  0  0  0  0  0  0  0
   10.8523   35.7094   30.4590 H   0  0  0  0  0  0  0  0  0  0  0  0
   12.3353   38.3587   34.7439 H   0  0  0  0  0  0  0  0  0  0  0  0
   16.7570   34.1788   32.4619 H   0  0  0  0  0  0  0  0  0  0  0  0
   15.3529   35.7359   37.5136 H   0  0  0  0  0  0  0  0  0  0  0  0
   16.6360   34.5317   37.1414 H   0  0  0  0  0  0  0  0  0  0  0  0
  1  2  2  0
  1  3  1  0
  3  4  1  0
  4  5  1  0
  6  1  1  0
  7  6  1  0
  6  8  1  0
  8  9  1  0
  9 10  1  0
  9 11  2  0
 10 12  1  0
 12 13  1  0
 13 14  2  0
 15 13  1  0
 14 16  1  0
 17 15  2  0
 16 18  2  0
 18 17  1  0
  4 19  2  0
  4 20  1  0
 21 20  1  0
 21 22  1  0
 22 23  1  0
 22 24  1  0
 23 25  1  0
 24 26  1  0
 24 27  1  0
 27 25  1  0
 25 28  1  0
 27 29  1  0
 30 28  1  0
 31 28  1  0
 32 30  2  0
 30 33  1  0
 34 31  2  0
 35 32  1  0
 33 36  2  0
 33 34  1  0
 37 35  2  0
 37 36  1  0
 36 38  1  0
  6 39  1  6
  7 40  1  0
  7 41  1  0
  8 42  1  0
  8 43  1  0
 12 44  1  0
 12 45  1  0
 14 46  1  0
 15 47  1  0
 16 48  1  0
 17 49  1  0
 18 50  1  0
 21 51  1  0
 21 52  1  0
 22 53  1  0
 24 54  1  0
 25 55  1  0
 26 56  1  0
 27 57  1  0
 29 58  1  0
 31 59  1  0
 35 60  1  0
 38 61  1  0
 38 62  1  0
M  CHG  1   5  -1
M  END
>  <EmbedRMS>  (244) 
0.08953001178999992

$$$$

     RDKit          3D

 62 65  0  0  0  0  0  0  0  0999 V2000
   10.2862   43.7710   33.8098 C   0  0  0  0  0  0  0  0  0  0  0  0
   11.4100   43.5817   34.3616 O   0  0  0  0  0  0  0  0  0  0  0  0
    9.3668   42.7309   33.7018 O   0  0  0  0  0  0  0  0  0  0  0  0
    9.8845   41.2329   34.2841 P   0  0  0  0  0  5  0  0  0  0  0  0
   10.3655   41.4677   35.8746 O   0  0  0  0  0  1  0  0  0  0  0  0
    9.9608   45.1125   33.2472 C   0  0  2  0  0  0  0  0  0  0  0  0
   11.0655   46.0480   33.4749 N   0  0  0  0  0  0  0  0  0  0  0  0
    8.6648   45.6567   33.8711 C   0  0  0  0  0  0  0  0  0  0  0  0
    8.2771   46.9648   33.2548 C   0  0  0  0  0  0  0  0  0  0  0  0
    8.7020   48.1581   33.8495 O   0  0  0  0  0  0  0  0  0  0  0  0
    7.6080   46.9787   32.1856 O   0  0  0  0  0  0  0  0  0  0  0  0
    8.3700   49.4479   33.3403 C   0  0  0  0  0  0  0  0  0  0  0  0
    6.9168   49.7507   33.5844 C   0  0  0  0  0  0  0  0  0  0  0  0
    6.4507   49.9367   34.8960 C   0  0  0  0  0  0  0  0  0  0  0  0
    6.0099   49.8232   32.5137 C   0  0  0  0  0  0  0  0  0  0  0  0
    5.0977   50.2001   35.1318 C   0  0  0  0  0  0  0  0  0  0  0  0
    4.6576   50.0866   32.7539 C   0  0  0  0  0  0  0  0  0  0  0  0
    4.2020   50.2756   34.0617 C   0  0  0  0  0  0  0  0  0  0  0  0
    8.8069   40.1904   34.2081 O   0  0  0  0  0  0  0  0  0  0  0  0
   11.2365   40.7896   33.3680 O   0  0  0  0  0  0  0  0  0  0  0  0
   10.9151   40.6881   31.9949 C   0  0  0  0  0  0  0  0  0  0  0  0
   11.5260   39.3871   31.4364 C   0  0  0  0  0  0  0  0  0  0  0  0
   12.7490   39.0893   32.0819 O   0  0  0  0  0  0  0  0  0  0  0  0
   10.6123   38.1892   31.6461 C   0  0  0  0  0  0  0  0  0  0  0  0
   12.9373   37.6827   32.0301 C   0  0  0  0  0  0  0  0  0  0  0  0
    9.6150   38.0838   30.6538 O   0  0  0  0  0  0  0  0  0  0  0  0
   11.5793   37.0136   31.7013 C   0  0  0  0  0  0  0  0  0  0  0  0
   13.4906   37.2170   33.3242 N   0  0  0  0  0  0  0  0  0  0  0  0
   11.6217   36.3252   30.4725 O   0  0  0  0  0  0  0  0  0  0  0  0
   14.4763   36.3266   33.5731 C   0  0  0  0  0  0  0  0  0  0  0  0
   13.1181   37.6308   34.5694 C   0  0  0  0  0  0  0  0  0  0  0  0
   15.2065   35.6137   32.6740 N   0  0  0  0  0  0  0  0  0  0  0  0
   14.6736   36.2270   34.9185 C   0  0  0  0  0  0  0  0  0  0  0  0
   13.8229   37.0451   35.5787 N   0  0  0  0  0  0  0  0  0  0  0  0
   16.1639   34.7593   33.1547 C   0  0  0  0  0  0  0  0  0  0  0  0
   15.6519   35.3489   35.4132 C   0  0  0  0  0  0  0  0  0  0  0  0
   16.3794   34.6308   34.5042 N   0  0  0  0  0  0  0  0  0  0  0  0
   15.9006   35.1931   36.8090 N   0  0  0  0  0  0  0  0  0  0  0  0
    9.8100   44.9954   32.1510 H   0  0  0  0  0  0  0  0  0  0  0  0
   11.2747   46.1189   34.4983 H   0  0  0  0  0  0  0  0  0  0  0  0
   11.9221   45.7020   32.9833 H   0  0  0  0  0  0  0  0  0  0  0  0
    8.7967   45.7926   34.9670 H   0  0  0  0  0  0  0  0  0  0  0  0
    7.8355   44.9316   33.7175 H   0  0  0  0  0  0  0  0  0  0  0  0
    8.9886   50.2063   33.8650 H   0  0  0  0  0  0  0  0  0  0  0  0
    8.6253   49.5059   32.2593 H   0  0  0  0  0  0  0  0  0  0  0  0
    7.1349   49.8759   35.7334 H   0  0  0  0  0  0  0  0  0  0  0  0
    6.3474   49.6740   31.4956 H   0  0  0  0  0  0  0  0  0  0  0  0
    4.7434   50.3439   36.1444 H   0  0  0  0  0  0  0  0  0  0  0  0
    3.9625   50.1424   31.9262 H   0  0  0  0  0  0  0  0  0  0  0  0
    3.1549   50.4787   34.2458 H   0  0  0  0  0  0  0  0  0  0  0  0
   11.3825   41.5503   31.4729 H   0  0  0  0  0  0  0  0  0  0  0  0
    9.8250   40.7180   31.7578 H   0  0  0  0  0  0  0  0  0  0  0  0
   11.7290   39.5287   30.3503 H   0  0  0  0  0  0  0  0  0  0  0  0
   10.1139   38.2718   32.6379 H   0  0  0  0  0  0  0  0  0  0  0  0
   13.6726   37.4637   31.2240 H   0  0  0  0  0  0  0  0  0  0  0  0
   10.0535   38.1084   29.7638 H   0  0  0  0  0  0  0  0  0  0  0  0
   11.2646   36.3134   32.5107 H   0  0  0  0  0  0  0  0  0  0  0  0
   12.1550   35.5032   30.6315 H   0  0  0  0  0  0  0  0  0  0  0  0
   12.3362   38.3586   34.7450 H   0  0  0  0  0  0  0  0  0  0  0  0
   16.7573   34.1788   32.4619 H   0  0  0  0  0  0  0  0  0  0  0  0
   16.6366   34.5314   37.1415 H   0  0  0  0  0  0  0  0  0  0  0  0
   15.3533   35.7353   37.5139 H   0  0  0  0  0  0  0  0  0  0  0  0
  1  2  2  0
  1  3  1  0
  3  4  1  0
  4  5  1  0
  6  1  1  0
  7  6  1  0
  6  8  1  0
  8  9  1  0
  9 10  1  0
  9 11  2  0
 10 12  1  0
 12 13  1  0
 13 14  2  0
 15 13  1  0
 14 16  1  0
 17 15  2  0
 16 18  2  0
 18 17  1  0
  4 19  2  0
  4 20  1  0
 21 20  1  0
 21 22  1  0
 22 23  1  0
 22 24  1  0
 23 25  1  0
 24 26  1  0
 24 27  1  0
 27 25  1  0
 25 28  1  0
 27 29  1  0
 30 28  1  0
 31 28  1  0
 32 30  2  0
 30 33  1  0
 34 31  2  0
 35 32  1  0
 33 36  2  0
 33 34  1  0
 37 35  2  0
 37 36  1  0
 36 38  1  0
  6 39  1  6
  7 40  1  0
  7 41  1  0
  8 42  1  0
  8 43  1  0
 12 44  1  0
 12 45  1  0
 14 46  1  0
 15 47  1  0
 16 48  1  0
 17 49  1  0
 18 50  1  0
 21 51  1  0
 21 52  1  0
 22 53  1  0
 24 54  1  0
 25 55  1  0
 26 56  1  0
 27 57  1  0
 29 58  1  0
 31 59  1  0
 35 60  1  0
 38 61  1  0
 38 62  1  0
M  CHG  1   5  -1
M  END
>  <EmbedRMS>  (245) 
0.08844121256675491

$$$$

     RDKit          3D

 62 65  0  0  0  0  0  0  0  0999 V2000
   10.2804   43.7763   33.8103 C   0  0  0  0  0  0  0  0  0  0  0  0
   11.4064   43.5918   34.3597 O   0  0  0  0  0  0  0  0  0  0  0  0
    9.3705   42.7289   33.6944 O   0  0  0  0  0  0  0  0  0  0  0  0
    9.8870   41.2338   34.2825 P   0  0  0  0  0  5  0  0  0  0  0  0
   10.3665   41.4714   35.8731 O   0  0  0  0  0  1  0  0  0  0  0  0
    9.9458   45.1199   33.2591 C   0  0  2  0  0  0  0  0  0  0  0  0
   11.0788   46.0227   33.4727 N   0  0  0  0  0  0  0  0  0  0  0  0
    8.6679   45.7015   33.9055 C   0  0  0  0  0  0  0  0  0  0  0  0
    7.4265   44.9487   33.4935 C   0  0  0  0  0  0  0  0  0  0  0  0
    6.7320   44.0828   34.3526 O   0  0  0  0  0  0  0  0  0  0  0  0
    7.0091   45.0797   32.3127 O   0  0  0  0  0  0  0  0  0  0  0  0
    7.0093   43.8952   35.7407 C   0  0  0  0  0  0  0  0  0  0  0  0
    6.5663   45.0889   36.5442 C   0  0  0  0  0  0  0  0  0  0  0  0
    7.4241   45.6653   37.4965 C   0  0  0  0  0  0  0  0  0  0  0  0
    5.2715   45.6092   36.3810 C   0  0  0  0  0  0  0  0  0  0  0  0
    7.0006   46.7623   38.2533 C   0  0  0  0  0  0  0  0  0  0  0  0
    4.8518   46.7060   37.1403 C   0  0  0  0  0  0  0  0  0  0  0  0
    5.7165   47.2836   38.0739 C   0  0  0  0  0  0  0  0  0  0  0  0
    8.8083   40.1920   34.2082 O   0  0  0  0  0  0  0  0  0  0  0  0
   11.2379   40.7890   33.3660 O   0  0  0  0  0  0  0  0  0  0  0  0
   10.9144   40.6840   31.9932 C   0  0  0  0  0  0  0  0  0  0  0  0
   11.5178   39.3771   31.4392 C   0  0  0  0  0  0  0  0  0  0  0  0
   12.7480   39.0866   32.0752 O   0  0  0  0  0  0  0  0  0  0  0  0
   10.6070   38.1851   31.6656 C   0  0  0  0  0  0  0  0  0  0  0  0
   12.9372   37.6808   32.0289 C   0  0  0  0  0  0  0  0  0  0  0  0
    9.6404   38.0883   30.6476 O   0  0  0  0  0  0  0  0  0  0  0  0
   11.5789   37.0133   31.7045 C   0  0  0  0  0  0  0  0  0  0  0  0
   13.4915   37.2181   33.3239 N   0  0  0  0  0  0  0  0  0  0  0  0
   11.6124   36.3388   30.4673 O   0  0  0  0  0  0  0  0  0  0  0  0
   14.4766   36.3271   33.5730 C   0  0  0  0  0  0  0  0  0  0  0  0
   13.1184   37.6317   34.5690 C   0  0  0  0  0  0  0  0  0  0  0  0
   15.2066   35.6139   32.6741 N   0  0  0  0  0  0  0  0  0  0  0  0
   14.6735   36.2273   34.9184 C   0  0  0  0  0  0  0  0  0  0  0  0
   13.8227   37.0456   35.5785 N   0  0  0  0  0  0  0  0  0  0  0  0
   16.1638   34.7593   33.1548 C   0  0  0  0  0  0  0  0  0  0  0  0
   15.6517   35.3491   35.4132 C   0  0  0  0  0  0  0  0  0  0  0  0
   16.3792   34.6308   34.5043 N   0  0  0  0  0  0  0  0  0  0  0  0
   15.9004   35.1932   36.8091 N   0  0  0  0  0  0  0  0  0  0  0  0
    9.7874   45.0100   32.1631 H   0  0  0  0  0  0  0  0  0  0  0  0
   10.9051   46.9082   32.9435 H   0  0  0  0  0  0  0  0  0  0  0  0
   11.1427   46.2751   34.4869 H   0  0  0  0  0  0  0  0  0  0  0  0
    8.7854   45.7331   35.0059 H   0  0  0  0  0  0  0  0  0  0  0  0
    8.5444   46.7557   33.5751 H   0  0  0  0  0  0  0  0  0  0  0  0
    8.0871   43.6713   35.8903 H   0  0  0  0  0  0  0  0  0  0  0  0
    6.4421   43.0091   36.0943 H   0  0  0  0  0  0  0  0  0  0  0  0
    8.4205   45.2698   37.6503 H   0  0  0  0  0  0  0  0  0  0  0  0
    4.5892   45.1668   35.6656 H   0  0  0  0  0  0  0  0  0  0  0  0
    7.6675   47.2069   38.9807 H   0  0  0  0  0  0  0  0  0  0  0  0
    3.8553   47.1065   37.0065 H   0  0  0  0  0  0  0  0  0  0  0  0
    5.3900   48.1321   38.6612 H   0  0  0  0  0  0  0  0  0  0  0  0
    9.8242   40.7189   31.7570 H   0  0  0  0  0  0  0  0  0  0  0  0
   11.3862   41.5412   31.4671 H   0  0  0  0  0  0  0  0  0  0  0  0
   11.7008   39.5017   30.3468 H   0  0  0  0  0  0  0  0  0  0  0  0
   10.1099   38.2752   32.6606 H   0  0  0  0  0  0  0  0  0  0  0  0
   13.6714   37.4587   31.2227 H   0  0  0  0  0  0  0  0  0  0  0  0
    9.0031   37.3838   30.9353 H   0  0  0  0  0  0  0  0  0  0  0  0
   11.2705   36.3048   32.5088 H   0  0  0  0  0  0  0  0  0  0  0  0
   12.1440   35.5134   30.6141 H   0  0  0  0  0  0  0  0  0  0  0  0
   12.3362   38.3592   34.7444 H   0  0  0  0  0  0  0  0  0  0  0  0
   16.7571   34.1786   32.4620 H   0  0  0  0  0  0  0  0  0  0  0  0
   16.6363   34.5314   37.1416 H   0  0  0  0  0  0  0  0  0  0  0  0
   15.3531   35.7355   37.5139 H   0  0  0  0  0  0  0  0  0  0  0  0
  1  2  2  0
  1  3  1  0
  3  4  1  0
  4  5  1  0
  6  1  1  0
  7  6  1  0
  6  8  1  0
  8  9  1  0
  9 10  1  0
  9 11  2  0
 10 12  1  0
 12 13  1  0
 13 14  2  0
 15 13  1  0
 14 16  1  0
 17 15  2  0
 16 18  2  0
 18 17  1  0
  4 19  2  0
  4 20  1  0
 21 20  1  0
 21 22  1  0
 22 23  1  0
 22 24  1  0
 23 25  1  0
 24 26  1  0
 24 27  1  0
 27 25  1  0
 25 28  1  0
 27 29  1  0
 30 28  1  0
 31 28  1  0
 32 30  2  0
 30 33  1  0
 34 31  2  0
 35 32  1  0
 33 36  2  0
 33 34  1  0
 37 35  2  0
 37 36  1  0
 36 38  1  0
  6 39  1  6
  7 40  1  0
  7 41  1  0
  8 42  1  0
  8 43  1  0
 12 44  1  0
 12 45  1  0
 14 46  1  0
 15 47  1  0
 16 48  1  0
 17 49  1  0
 18 50  1  0
 21 51  1  0
 21 52  1  0
 22 53  1  0
 24 54  1  0
 25 55  1  0
 26 56  1  0
 27 57  1  0
 29 58  1  0
 31 59  1  0
 35 60  1  0
 38 61  1  0
 38 62  1  0
M  CHG  1   5  -1
M  END
>  <EmbedRMS>  (246) 
0.089005318683882

$$$$

     RDKit          3D

 62 65  0  0  0  0  0  0  0  0999 V2000
   10.2811   43.7751   33.8078 C   0  0  0  0  0  0  0  0  0  0  0  0
   11.4039   43.5911   34.3640 O   0  0  0  0  0  0  0  0  0  0  0  0
    9.3695   42.7287   33.6945 O   0  0  0  0  0  0  0  0  0  0  0  0
    9.8866   41.2335   34.2832 P   0  0  0  0  0  5  0  0  0  0  0  0
   10.3654   41.4710   35.8739 O   0  0  0  0  0  1  0  0  0  0  0  0
    9.9450   45.1235   33.2625 C   0  0  2  0  0  0  0  0  0  0  0  0
   11.0814   46.0234   33.4679 N   0  0  0  0  0  0  0  0  0  0  0  0
    8.6979   45.7038   33.9632 C   0  0  0  0  0  0  0  0  0  0  0  0
    7.4388   45.0113   33.5385 C   0  0  0  0  0  0  0  0  0  0  0  0
    6.8995   44.0060   34.3455 O   0  0  0  0  0  0  0  0  0  0  0  0
    6.8922   45.3211   32.4447 O   0  0  0  0  0  0  0  0  0  0  0  0
    5.7107   43.3015   34.0055 C   0  0  0  0  0  0  0  0  0  0  0  0
    5.4643   42.2279   35.0244 C   0  0  0  0  0  0  0  0  0  0  0  0
    5.0435   42.5726   36.3190 C   0  0  0  0  0  0  0  0  0  0  0  0
    5.6964   40.8780   34.7117 C   0  0  0  0  0  0  0  0  0  0  0  0
    4.8460   41.5791   37.2831 C   0  0  0  0  0  0  0  0  0  0  0  0
    5.4993   39.8876   35.6790 C   0  0  0  0  0  0  0  0  0  0  0  0
    5.0734   40.2376   36.9633 C   0  0  0  0  0  0  0  0  0  0  0  0
    8.8110   40.1892   34.2080 O   0  0  0  0  0  0  0  0  0  0  0  0
   11.2382   40.7895   33.3679 O   0  0  0  0  0  0  0  0  0  0  0  0
   10.9159   40.6880   31.9949 C   0  0  0  0  0  0  0  0  0  0  0  0
   11.5262   39.3870   31.4364 C   0  0  0  0  0  0  0  0  0  0  0  0
   12.7493   39.0891   32.0817 O   0  0  0  0  0  0  0  0  0  0  0  0
   10.6122   38.1894   31.6462 C   0  0  0  0  0  0  0  0  0  0  0  0
   12.9373   37.6825   32.0301 C   0  0  0  0  0  0  0  0  0  0  0  0
    9.6149   38.0839   30.6540 O   0  0  0  0  0  0  0  0  0  0  0  0
   11.5792   37.0136   31.7014 C   0  0  0  0  0  0  0  0  0  0  0  0
   13.4906   37.2169   33.3242 N   0  0  0  0  0  0  0  0  0  0  0  0
   11.6214   36.3252   30.4726 O   0  0  0  0  0  0  0  0  0  0  0  0
   14.4763   36.3266   33.5731 C   0  0  0  0  0  0  0  0  0  0  0  0
   13.1181   37.6308   34.5694 C   0  0  0  0  0  0  0  0  0  0  0  0
   15.2065   35.6137   32.6740 N   0  0  0  0  0  0  0  0  0  0  0  0
   14.6735   36.2270   34.9185 C   0  0  0  0  0  0  0  0  0  0  0  0
   13.8228   37.0451   35.5787 N   0  0  0  0  0  0  0  0  0  0  0  0
   16.1639   34.7593   33.1547 C   0  0  0  0  0  0  0  0  0  0  0  0
   15.6518   35.3489   35.4132 C   0  0  0  0  0  0  0  0  0  0  0  0
   16.3794   34.6308   34.5042 N   0  0  0  0  0  0  0  0  0  0  0  0
   15.9006   35.1931   36.8090 N   0  0  0  0  0  0  0  0  0  0  0  0
    9.7491   45.0294   32.1699 H   0  0  0  0  0  0  0  0  0  0  0  0
   10.8422   46.9593   33.0663 H   0  0  0  0  0  0  0  0  0  0  0  0
   11.8853   45.6773   32.8935 H   0  0  0  0  0  0  0  0  0  0  0  0
    8.8105   45.6314   35.0674 H   0  0  0  0  0  0  0  0  0  0  0  0
    8.5939   46.7823   33.7140 H   0  0  0  0  0  0  0  0  0  0  0  0
    4.8509   44.0060   33.9907 H   0  0  0  0  0  0  0  0  0  0  0  0
    5.8146   42.8605   32.9895 H   0  0  0  0  0  0  0  0  0  0  0  0
    4.8723   43.6096   36.5807 H   0  0  0  0  0  0  0  0  0  0  0  0
    6.0319   40.5920   33.7226 H   0  0  0  0  0  0  0  0  0  0  0  0
    4.5201   41.8495   38.2792 H   0  0  0  0  0  0  0  0  0  0  0  0
    5.6795   38.8490   35.4335 H   0  0  0  0  0  0  0  0  0  0  0  0
    4.9222   39.4699   37.7111 H   0  0  0  0  0  0  0  0  0  0  0  0
    9.8257   40.7181   31.7581 H   0  0  0  0  0  0  0  0  0  0  0  0
   11.3832   41.5502   31.4727 H   0  0  0  0  0  0  0  0  0  0  0  0
   11.7291   39.5285   30.3502 H   0  0  0  0  0  0  0  0  0  0  0  0
   10.1139   38.2720   32.6381 H   0  0  0  0  0  0  0  0  0  0  0  0
   13.6725   37.4632   31.2240 H   0  0  0  0  0  0  0  0  0  0  0  0
   10.0533   38.1086   29.7640 H   0  0  0  0  0  0  0  0  0  0  0  0
   11.2644   36.3134   32.5108 H   0  0  0  0  0  0  0  0  0  0  0  0
   12.1545   35.5031   30.6316 H   0  0  0  0  0  0  0  0  0  0  0  0
   12.3360   38.3585   34.7450 H   0  0  0  0  0  0  0  0  0  0  0  0
   16.7573   34.1788   32.4619 H   0  0  0  0  0  0  0  0  0  0  0  0
   16.6366   34.5314   37.1415 H   0  0  0  0  0  0  0  0  0  0  0  0
   15.3533   35.7353   37.5139 H   0  0  0  0  0  0  0  0  0  0  0  0
  1  2  2  0
  1  3  1  0
  3  4  1  0
  4  5  1  0
  6  1  1  0
  7  6  1  0
  6  8  1  0
  8  9  1  0
  9 10  1  0
  9 11  2  0
 10 12  1  0
 12 13  1  0
 13 14  2  0
 15 13  1  0
 14 16  1  0
 17 15  2  0
 16 18  2  0
 18 17  1  0
  4 19  2  0
  4 20  1  0
 21 20  1  0
 21 22  1  0
 22 23  1  0
 22 24  1  0
 23 25  1  0
 24 26  1  0
 24 27  1  0
 27 25  1  0
 25 28  1  0
 27 29  1  0
 30 28  1  0
 31 28  1  0
 32 30  2  0
 30 33  1  0
 34 31  2  0
 35 32  1  0
 33 36  2  0
 33 34  1  0
 37 35  2  0
 37 36  1  0
 36 38  1  0
  6 39  1  6
  7 40  1  0
  7 41  1  0
  8 42  1  0
  8 43  1  0
 12 44  1  0
 12 45  1  0
 14 46  1  0
 15 47  1  0
 16 48  1  0
 17 49  1  0
 18 50  1  0
 21 51  1  0
 21 52  1  0
 22 53  1  0
 24 54  1  0
 25 55  1  0
 26 56  1  0
 27 57  1  0
 29 58  1  0
 31 59  1  0
 35 60  1  0
 38 61  1  0
 38 62  1  0
M  CHG  1   5  -1
M  END
>  <EmbedRMS>  (247) 
0.088195747261564

$$$$

     RDKit          3D

 62 65  0  0  0  0  0  0  0  0999 V2000
   10.2858   43.7720   33.8058 C   0  0  0  0  0  0  0  0  0  0  0  0
   11.4085   43.5877   34.3618 O   0  0  0  0  0  0  0  0  0  0  0  0
    9.3677   42.7307   33.6991 O   0  0  0  0  0  0  0  0  0  0  0  0
    9.8857   41.2337   34.2835 P   0  0  0  0  0  5  0  0  0  0  0  0
   10.3655   41.4695   35.8742 O   0  0  0  0  0  1  0  0  0  0  0  0
    9.9540   45.1148   33.2535 C   0  0  2  0  0  0  0  0  0  0  0  0
   11.0707   46.0346   33.4751 N   0  0  0  0  0  0  0  0  0  0  0  0
    8.6537   45.6736   33.8744 C   0  0  0  0  0  0  0  0  0  0  0  0
    8.7838   45.9927   35.3493 C   0  0  0  0  0  0  0  0  0  0  0  0
    8.5224   47.2617   35.8901 O   0  0  0  0  0  0  0  0  0  0  0  0
    9.0993   45.0675   36.1432 O   0  0  0  0  0  0  0  0  0  0  0  0
    8.1003   48.4115   35.1570 C   0  0  0  0  0  0  0  0  0  0  0  0
    9.2381   48.9967   34.3645 C   0  0  0  0  0  0  0  0  0  0  0  0
   10.4751   49.2458   34.9828 C   0  0  0  0  0  0  0  0  0  0  0  0
    9.0616   49.3444   33.0144 C   0  0  0  0  0  0  0  0  0  0  0  0
   11.5280   49.8051   34.2522 C   0  0  0  0  0  0  0  0  0  0  0  0
   10.1172   49.9038   32.2876 C   0  0  0  0  0  0  0  0  0  0  0  0
   11.3501   50.1313   32.9050 C   0  0  0  0  0  0  0  0  0  0  0  0
    8.8081   40.1909   34.2075 O   0  0  0  0  0  0  0  0  0  0  0  0
   11.2383   40.7899   33.3683 O   0  0  0  0  0  0  0  0  0  0  0  0
   10.9189   40.6887   31.9947 C   0  0  0  0  0  0  0  0  0  0  0  0
   11.5181   39.3799   31.4397 C   0  0  0  0  0  0  0  0  0  0  0  0
   12.7485   39.0875   32.0749 O   0  0  0  0  0  0  0  0  0  0  0  0
   10.6054   38.1875   31.6656 C   0  0  0  0  0  0  0  0  0  0  0  0
   12.9361   37.6816   32.0288 C   0  0  0  0  0  0  0  0  0  0  0  0
    9.6423   38.0738   30.6445 O   0  0  0  0  0  0  0  0  0  0  0  0
   11.5765   37.0158   31.7046 C   0  0  0  0  0  0  0  0  0  0  0  0
   13.4908   37.2182   33.3237 N   0  0  0  0  0  0  0  0  0  0  0  0
   11.6102   36.3399   30.4680 O   0  0  0  0  0  0  0  0  0  0  0  0
   14.4762   36.3273   33.5728 C   0  0  0  0  0  0  0  0  0  0  0  0
   13.1181   37.6318   34.5689 C   0  0  0  0  0  0  0  0  0  0  0  0
   15.2063   35.6141   32.6739 N   0  0  0  0  0  0  0  0  0  0  0  0
   14.6733   36.2275   34.9182 C   0  0  0  0  0  0  0  0  0  0  0  0
   13.8226   37.0457   35.5783 N   0  0  0  0  0  0  0  0  0  0  0  0
   16.1636   34.7595   33.1546 C   0  0  0  0  0  0  0  0  0  0  0  0
   15.6515   35.3492   35.4130 C   0  0  0  0  0  0  0  0  0  0  0  0
   16.3791   34.6310   34.5041 N   0  0  0  0  0  0  0  0  0  0  0  0
   15.9002   35.1933   36.8089 N   0  0  0  0  0  0  0  0  0  0  0  0
    9.7917   44.9973   32.1581 H   0  0  0  0  0  0  0  0  0  0  0  0
   11.8984   45.6877   32.9365 H   0  0  0  0  0  0  0  0  0  0  0  0
   10.8273   46.9515   33.0368 H   0  0  0  0  0  0  0  0  0  0  0  0
    7.8318   44.9367   33.7452 H   0  0  0  0  0  0  0  0  0  0  0  0
    8.3537   46.5662   33.2939 H   0  0  0  0  0  0  0  0  0  0  0  0
    7.7554   49.1791   35.8808 H   0  0  0  0  0  0  0  0  0  0  0  0
    7.2282   48.1568   34.5166 H   0  0  0  0  0  0  0  0  0  0  0  0
   10.6246   49.0024   36.0274 H   0  0  0  0  0  0  0  0  0  0  0  0
    8.1114   49.1770   32.5229 H   0  0  0  0  0  0  0  0  0  0  0  0
   12.4814   49.9872   34.7310 H   0  0  0  0  0  0  0  0  0  0  0  0
    9.9790   50.1619   31.2456 H   0  0  0  0  0  0  0  0  0  0  0  0
   12.1661   50.5640   32.3408 H   0  0  0  0  0  0  0  0  0  0  0  0
   11.3994   41.5435   31.4724 H   0  0  0  0  0  0  0  0  0  0  0  0
    9.8310   40.7374   31.7549 H   0  0  0  0  0  0  0  0  0  0  0  0
   11.7003   39.5045   30.3472 H   0  0  0  0  0  0  0  0  0  0  0  0
   10.1104   38.2619   32.6636 H   0  0  0  0  0  0  0  0  0  0  0  0
   13.6696   37.4586   31.2222 H   0  0  0  0  0  0  0  0  0  0  0  0
    8.9000   38.6882   30.8814 H   0  0  0  0  0  0  0  0  0  0  0  0
   11.2690   36.3069   32.5091 H   0  0  0  0  0  0  0  0  0  0  0  0
   12.1426   35.5150   30.6153 H   0  0  0  0  0  0  0  0  0  0  0  0
   12.3359   38.3593   34.7445 H   0  0  0  0  0  0  0  0  0  0  0  0
   16.7569   34.1789   32.4618 H   0  0  0  0  0  0  0  0  0  0  0  0
   16.6362   34.5315   37.1414 H   0  0  0  0  0  0  0  0  0  0  0  0
   15.3530   35.7356   37.5138 H   0  0  0  0  0  0  0  0  0  0  0  0
  1  2  2  0
  1  3  1  0
  3  4  1  0
  4  5  1  0
  6  1  1  0
  7  6  1  0
  6  8  1  0
  8  9  1  0
  9 10  1  0
  9 11  2  0
 10 12  1  0
 12 13  1  0
 13 14  2  0
 15 13  1  0
 14 16  1  0
 17 15  2  0
 16 18  2  0
 18 17  1  0
  4 19  2  0
  4 20  1  0
 21 20  1  0
 21 22  1  0
 22 23  1  0
 22 24  1  0
 23 25  1  0
 24 26  1  0
 24 27  1  0
 27 25  1  0
 25 28  1  0
 27 29  1  0
 30 28  1  0
 31 28  1  0
 32 30  2  0
 30 33  1  0
 34 31  2  0
 35 32  1  0
 33 36  2  0
 33 34  1  0
 37 35  2  0
 37 36  1  0
 36 38  1  0
  6 39  1  6
  7 40  1  0
  7 41  1  0
  8 42  1  0
  8 43  1  0
 12 44  1  0
 12 45  1  0
 14 46  1  0
 15 47  1  0
 16 48  1  0
 17 49  1  0
 18 50  1  0
 21 51  1  0
 21 52  1  0
 22 53  1  0
 24 54  1  0
 25 55  1  0
 26 56  1  0
 27 57  1  0
 29 58  1  0
 31 59  1  0
 35 60  1  0
 38 61  1  0
 38 62  1  0
M  CHG  1   5  -1
M  END
>  <EmbedRMS>  (248) 
0.08939895702130798

$$$$

     RDKit          3D

 62 65  0  0  0  0  0  0  0  0999 V2000
   10.2844   43.7741   33.8070 C   0  0  0  0  0  0  0  0  0  0  0  0
   11.4068   43.5902   34.3637 O   0  0  0  0  0  0  0  0  0  0  0  0
    9.3679   42.7310   33.6989 O   0  0  0  0  0  0  0  0  0  0  0  0
    9.8863   41.2339   34.2827 P   0  0  0  0  0  5  0  0  0  0  0  0
   10.3670   41.4692   35.8733 O   0  0  0  0  0  1  0  0  0  0  0  0
    9.9498   45.1157   33.2540 C   0  0  2  0  0  0  0  0  0  0  0  0
   11.0750   46.0287   33.4734 N   0  0  0  0  0  0  0  0  0  0  0  0
    8.6757   45.6519   33.9373 C   0  0  0  0  0  0  0  0  0  0  0  0
    8.2014   46.9155   33.2903 C   0  0  0  0  0  0  0  0  0  0  0  0
    7.6962   46.8698   31.9866 O   0  0  0  0  0  0  0  0  0  0  0  0
    8.2954   48.0114   33.9077 O   0  0  0  0  0  0  0  0  0  0  0  0
    7.4434   48.0369   31.2086 C   0  0  0  0  0  0  0  0  0  0  0  0
    8.7416   48.6969   30.8301 C   0  0  0  0  0  0  0  0  0  0  0  0
    9.6676   48.0105   30.0277 C   0  0  0  0  0  0  0  0  0  0  0  0
    9.0568   49.9827   31.3005 C   0  0  0  0  0  0  0  0  0  0  0  0
   10.8898   48.6040   29.6977 C   0  0  0  0  0  0  0  0  0  0  0  0
   10.2798   50.5732   30.9668 C   0  0  0  0  0  0  0  0  0  0  0  0
   11.1954   49.8846   30.1663 C   0  0  0  0  0  0  0  0  0  0  0  0
    8.8083   40.1914   34.2077 O   0  0  0  0  0  0  0  0  0  0  0  0
   11.2377   40.7904   33.3657 O   0  0  0  0  0  0  0  0  0  0  0  0
   10.9147   40.6850   31.9929 C   0  0  0  0  0  0  0  0  0  0  0  0
   11.5168   39.3773   31.4392 C   0  0  0  0  0  0  0  0  0  0  0  0
   12.7473   39.0854   32.0738 O   0  0  0  0  0  0  0  0  0  0  0  0
   10.6048   38.1868   31.6669 C   0  0  0  0  0  0  0  0  0  0  0  0
   12.9346   37.6790   32.0282 C   0  0  0  0  0  0  0  0  0  0  0  0
    9.6378   38.0918   30.6489 O   0  0  0  0  0  0  0  0  0  0  0  0
   11.5761   37.0129   31.7056 C   0  0  0  0  0  0  0  0  0  0  0  0
   13.4909   37.2177   33.3233 N   0  0  0  0  0  0  0  0  0  0  0  0
   11.6234   36.3371   30.4684 O   0  0  0  0  0  0  0  0  0  0  0  0
   14.4765   36.3271   33.5727 C   0  0  0  0  0  0  0  0  0  0  0  0
   13.1182   37.6315   34.5685 C   0  0  0  0  0  0  0  0  0  0  0  0
   15.2066   35.6137   32.6739 N   0  0  0  0  0  0  0  0  0  0  0  0
   14.6736   36.2276   34.9182 C   0  0  0  0  0  0  0  0  0  0  0  0
   13.8227   37.0457   35.5781 N   0  0  0  0  0  0  0  0  0  0  0  0
   16.1638   34.7592   33.1548 C   0  0  0  0  0  0  0  0  0  0  0  0
   15.6517   35.3492   35.4131 C   0  0  0  0  0  0  0  0  0  0  0  0
   16.3792   34.6309   34.5043 N   0  0  0  0  0  0  0  0  0  0  0  0
   15.9002   35.1934   36.8090 N   0  0  0  0  0  0  0  0  0  0  0  0
    9.7676   45.0032   32.1608 H   0  0  0  0  0  0  0  0  0  0  0  0
   11.8963   45.6772   32.9278 H   0  0  0  0  0  0  0  0  0  0  0  0
   10.8464   46.9549   33.0454 H   0  0  0  0  0  0  0  0  0  0  0  0
    8.8710   45.8275   35.0187 H   0  0  0  0  0  0  0  0  0  0  0  0
    7.8574   44.9037   33.8566 H   0  0  0  0  0  0  0  0  0  0  0  0
    6.7775   48.7288   31.7695 H   0  0  0  0  0  0  0  0  0  0  0  0
    6.9088   47.7385   30.2823 H   0  0  0  0  0  0  0  0  0  0  0  0
    9.4447   47.0144   29.6652 H   0  0  0  0  0  0  0  0  0  0  0  0
    8.3608   50.5252   31.9281 H   0  0  0  0  0  0  0  0  0  0  0  0
   11.6009   48.0700   29.0807 H   0  0  0  0  0  0  0  0  0  0  0  0
   10.5190   51.5638   31.3316 H   0  0  0  0  0  0  0  0  0  0  0  0
   12.1422   50.3425   29.9107 H   0  0  0  0  0  0  0  0  0  0  0  0
    9.8246   40.7214   31.7562 H   0  0  0  0  0  0  0  0  0  0  0  0
   11.3877   41.5415   31.4666 H   0  0  0  0  0  0  0  0  0  0  0  0
   11.6988   39.5011   30.3466 H   0  0  0  0  0  0  0  0  0  0  0  0
   10.1096   38.2772   32.6629 H   0  0  0  0  0  0  0  0  0  0  0  0
   13.6672   37.4543   31.2212 H   0  0  0  0  0  0  0  0  0  0  0  0
    8.9779   37.4158   30.9534 H   0  0  0  0  0  0  0  0  0  0  0  0
   11.2860   36.3041   32.5177 H   0  0  0  0  0  0  0  0  0  0  0  0
   10.8689   35.6918   30.4657 H   0  0  0  0  0  0  0  0  0  0  0  0
   12.3356   38.3587   34.7439 H   0  0  0  0  0  0  0  0  0  0  0  0
   16.7572   34.1786   32.4621 H   0  0  0  0  0  0  0  0  0  0  0  0
   15.3530   35.7358   37.5138 H   0  0  0  0  0  0  0  0  0  0  0  0
   16.6361   34.5315   37.1415 H   0  0  0  0  0  0  0  0  0  0  0  0
  1  2  2  0
  1  3  1  0
  3  4  1  0
  4  5  1  0
  6  1  1  0
  7  6  1  0
  6  8  1  0
  8  9  1  0
  9 10  1  0
  9 11  2  0
 10 12  1  0
 12 13  1  0
 13 14  2  0
 15 13  1  0
 14 16  1  0
 17 15  2  0
 16 18  2  0
 18 17  1  0
  4 19  2  0
  4 20  1  0
 21 20  1  0
 21 22  1  0
 22 23  1  0
 22 24  1  0
 23 25  1  0
 24 26  1  0
 24 27  1  0
 27 25  1  0
 25 28  1  0
 27 29  1  0
 30 28  1  0
 31 28  1  0
 32 30  2  0
 30 33  1  0
 34 31  2  0
 35 32  1  0
 33 36  2  0
 33 34  1  0
 37 35  2  0
 37 36  1  0
 36 38  1  0
  6 39  1  6
  7 40  1  0
  7 41  1  0
  8 42  1  0
  8 43  1  0
 12 44  1  0
 12 45  1  0
 14 46  1  0
 15 47  1  0
 16 48  1  0
 17 49  1  0
 18 50  1  0
 21 51  1  0
 21 52  1  0
 22 53  1  0
 24 54  1  0
 25 55  1  0
 26 56  1  0
 27 57  1  0
 29 58  1  0
 31 59  1  0
 35 60  1  0
 38 61  1  0
 38 62  1  0
M  CHG  1   5  -1
M  END
>  <EmbedRMS>  (249) 
0.08907527229528255

$$$$

     RDKit          3D

 62 65  0  0  0  0  0  0  0  0999 V2000
   10.2865   43.7710   33.8017 C   0  0  0  0  0  0  0  0  0  0  0  0
   11.4090   43.5869   34.3579 O   0  0  0  0  0  0  0  0  0  0  0  0
    9.3669   42.7309   33.6986 O   0  0  0  0  0  0  0  0  0  0  0  0
    9.8849   41.2346   34.2847 P   0  0  0  0  0  5  0  0  0  0  0  0
   10.3654   41.4710   35.8749 O   0  0  0  0  0  1  0  0  0  0  0  0
    9.9516   45.1164   33.2556 C   0  0  2  0  0  0  0  0  0  0  0  0
   11.0720   46.0323   33.4787 N   0  0  0  0  0  0  0  0  0  0  0  0
    8.6616   45.6676   33.8999 C   0  0  0  0  0  0  0  0  0  0  0  0
    8.7702   45.7521   35.3934 C   0  0  0  0  0  0  0  0  0  0  0  0
    9.5772   46.7380   35.9705 O   0  0  0  0  0  0  0  0  0  0  0  0
    8.1793   44.9010   36.1129 O   0  0  0  0  0  0  0  0  0  0  0  0
    9.9960   46.6986   37.3322 C   0  0  0  0  0  0  0  0  0  0  0  0
   10.9850   45.5822   37.5313 C   0  0  0  0  0  0  0  0  0  0  0  0
   12.2613   45.6667   36.9515 C   0  0  0  0  0  0  0  0  0  0  0  0
   10.6244   44.4225   38.2376 C   0  0  0  0  0  0  0  0  0  0  0  0
   13.1675   44.6104   37.0863 C   0  0  0  0  0  0  0  0  0  0  0  0
   11.5341   43.3688   38.3710 C   0  0  0  0  0  0  0  0  0  0  0  0
   12.8041   43.4622   37.7953 C   0  0  0  0  0  0  0  0  0  0  0  0
    8.8077   40.1914   34.2093 O   0  0  0  0  0  0  0  0  0  0  0  0
   11.2368   40.7903   33.3694 O   0  0  0  0  0  0  0  0  0  0  0  0
   10.9156   40.6898   31.9963 C   0  0  0  0  0  0  0  0  0  0  0  0
   11.5270   39.3899   31.4376 C   0  0  0  0  0  0  0  0  0  0  0  0
   12.7508   39.0917   32.0839 O   0  0  0  0  0  0  0  0  0  0  0  0
   10.6122   38.1916   31.6453 C   0  0  0  0  0  0  0  0  0  0  0  0
   12.9429   37.6853   32.0296 C   0  0  0  0  0  0  0  0  0  0  0  0
    9.6070   38.0859   30.6603 O   0  0  0  0  0  0  0  0  0  0  0  0
   11.5845   37.0187   31.6880 C   0  0  0  0  0  0  0  0  0  0  0  0
   13.4899   37.2164   33.3250 N   0  0  0  0  0  0  0  0  0  0  0  0
   11.6201   36.3063   30.4693 O   0  0  0  0  0  0  0  0  0  0  0  0
   14.4758   36.3264   33.5739 C   0  0  0  0  0  0  0  0  0  0  0  0
   13.1176   37.6309   34.5700 C   0  0  0  0  0  0  0  0  0  0  0  0
   15.2065   35.6139   32.6746 N   0  0  0  0  0  0  0  0  0  0  0  0
   14.6731   36.2268   34.9191 C   0  0  0  0  0  0  0  0  0  0  0  0
   13.8225   37.0451   35.5793 N   0  0  0  0  0  0  0  0  0  0  0  0
   16.1640   34.7596   33.1551 C   0  0  0  0  0  0  0  0  0  0  0  0
   15.6517   35.3489   35.4136 C   0  0  0  0  0  0  0  0  0  0  0  0
   16.3795   34.6310   34.5046 N   0  0  0  0  0  0  0  0  0  0  0  0
   15.9006   35.1931   36.8094 N   0  0  0  0  0  0  0  0  0  0  0  0
    9.7781   45.0128   32.1609 H   0  0  0  0  0  0  0  0  0  0  0  0
   10.8146   46.9709   33.0954 H   0  0  0  0  0  0  0  0  0  0  0  0
   11.8840   45.7085   32.9030 H   0  0  0  0  0  0  0  0  0  0  0  0
    8.4453   46.6802   33.4970 H   0  0  0  0  0  0  0  0  0  0  0  0
    7.8020   45.0180   33.6235 H   0  0  0  0  0  0  0  0  0  0  0  0
    9.1135   46.5892   38.0001 H   0  0  0  0  0  0  0  0  0  0  0  0
   10.4835   47.6643   37.5830 H   0  0  0  0  0  0  0  0  0  0  0  0
   12.5489   46.5456   36.3877 H   0  0  0  0  0  0  0  0  0  0  0  0
    9.6393   44.3303   38.6777 H   0  0  0  0  0  0  0  0  0  0  0  0
   14.1489   44.6792   36.6353 H   0  0  0  0  0  0  0  0  0  0  0  0
   11.2517   42.4766   38.9146 H   0  0  0  0  0  0  0  0  0  0  0  0
   13.5049   42.6435   37.8952 H   0  0  0  0  0  0  0  0  0  0  0  0
    9.8255   40.7192   31.7590 H   0  0  0  0  0  0  0  0  0  0  0  0
   11.3827   41.5527   31.4752 H   0  0  0  0  0  0  0  0  0  0  0  0
   11.7318   39.5340   30.3522 H   0  0  0  0  0  0  0  0  0  0  0  0
   10.1214   38.2682   32.6413 H   0  0  0  0  0  0  0  0  0  0  0  0
   13.6882   37.4709   31.2320 H   0  0  0  0  0  0  0  0  0  0  0  0
   10.0257   38.1753   29.7657 H   0  0  0  0  0  0  0  0  0  0  0  0
   11.2796   36.3124   32.4916 H   0  0  0  0  0  0  0  0  0  0  0  0
   11.9872   36.9100   29.7715 H   0  0  0  0  0  0  0  0  0  0  0  0
   12.3367   38.3599   34.7454 H   0  0  0  0  0  0  0  0  0  0  0  0
   16.7576   34.1794   32.4622 H   0  0  0  0  0  0  0  0  0  0  0  0
   16.6368   34.5316   37.1418 H   0  0  0  0  0  0  0  0  0  0  0  0
   15.3532   35.7352   37.5144 H   0  0  0  0  0  0  0  0  0  0  0  0
  1  2  2  0
  1  3  1  0
  3  4  1  0
  4  5  1  0
  6  1  1  0
  7  6  1  0
  6  8  1  0
  8  9  1  0
  9 10  1  0
  9 11  2  0
 10 12  1  0
 12 13  1  0
 13 14  2  0
 15 13  1  0
 14 16  1  0
 17 15  2  0
 16 18  2  0
 18 17  1  0
  4 19  2  0
  4 20  1  0
 21 20  1  0
 21 22  1  0
 22 23  1  0
 22 24  1  0
 23 25  1  0
 24 26  1  0
 24 27  1  0
 27 25  1  0
 25 28  1  0
 27 29  1  0
 30 28  1  0
 31 28  1  0
 32 30  2  0
 30 33  1  0
 34 31  2  0
 35 32  1  0
 33 36  2  0
 33 34  1  0
 37 35  2  0
 37 36  1  0
 36 38  1  0
  6 39  1  6
  7 40  1  0
  7 41  1  0
  8 42  1  0
  8 43  1  0
 12 44  1  0
 12 45  1  0
 14 46  1  0
 15 47  1  0
 16 48  1  0
 17 49  1  0
 18 50  1  0
 21 51  1  0
 21 52  1  0
 22 53  1  0
 24 54  1  0
 25 55  1  0
 26 56  1  0
 27 57  1  0
 29 58  1  0
 31 59  1  0
 35 60  1  0
 38 61  1  0
 38 62  1  0
M  CHG  1   5  -1
M  END
>  <EmbedRMS>  (250) 
0.08689871392229762

$$$$

     RDKit          3D

 62 65  0  0  0  0  0  0  0  0999 V2000
   10.2872   43.7698   33.8110 C   0  0  0  0  0  0  0  0  0  0  0  0
   11.4122   43.5799   34.3594 O   0  0  0  0  0  0  0  0  0  0  0  0
    9.3664   42.7312   33.7043 O   0  0  0  0  0  0  0  0  0  0  0  0
    9.8840   41.2327   34.2844 P   0  0  0  0  0  5  0  0  0  0  0  0
   10.3646   41.4644   35.8748 O   0  0  0  0  0  1  0  0  0  0  0  0
    9.9638   45.1112   33.2460 C   0  0  2  0  0  0  0  0  0  0  0  0
   11.0624   46.0544   33.4739 N   0  0  0  0  0  0  0  0  0  0  0  0
    8.6398   45.6686   33.8054 C   0  0  0  0  0  0  0  0  0  0  0  0
    8.7105   45.9635   35.2745 C   0  0  0  0  0  0  0  0  0  0  0  0
    8.7559   44.9065   36.1906 O   0  0  0  0  0  0  0  0  0  0  0  0
    8.7579   47.1604   35.6696 O   0  0  0  0  0  0  0  0  0  0  0  0
    8.9981   45.0906   37.5834 C   0  0  0  0  0  0  0  0  0  0  0  0
   10.4245   45.5122   37.8120 C   0  0  0  0  0  0  0  0  0  0  0  0
   11.4681   44.5972   37.6007 C   0  0  0  0  0  0  0  0  0  0  0  0
   10.7307   46.8314   38.1862 C   0  0  0  0  0  0  0  0  0  0  0  0
   12.7983   44.9940   37.7671 C   0  0  0  0  0  0  0  0  0  0  0  0
   12.0624   47.2243   38.3533 C   0  0  0  0  0  0  0  0  0  0  0  0
   13.0954   46.3065   38.1438 C   0  0  0  0  0  0  0  0  0  0  0  0
    8.8062   40.1904   34.2073 O   0  0  0  0  0  0  0  0  0  0  0  0
   11.2360   40.7909   33.3674 O   0  0  0  0  0  0  0  0  0  0  0  0
   10.9132   40.6861   31.9947 C   0  0  0  0  0  0  0  0  0  0  0  0
   11.5168   39.3798   31.4411 C   0  0  0  0  0  0  0  0  0  0  0  0
   12.7486   39.0888   32.0764 O   0  0  0  0  0  0  0  0  0  0  0  0
   10.6050   38.1877   31.6660 C   0  0  0  0  0  0  0  0  0  0  0  0
   12.9411   37.6830   32.0278 C   0  0  0  0  0  0  0  0  0  0  0  0
    9.6358   38.0930   30.6503 O   0  0  0  0  0  0  0  0  0  0  0  0
   11.5827   37.0180   31.6937 C   0  0  0  0  0  0  0  0  0  0  0  0
   13.4909   37.2177   33.3240 N   0  0  0  0  0  0  0  0  0  0  0  0
   11.6141   36.3181   30.4675 O   0  0  0  0  0  0  0  0  0  0  0  0
   14.4762   36.3270   33.5733 C   0  0  0  0  0  0  0  0  0  0  0  0
   13.1179   37.6317   34.5689 C   0  0  0  0  0  0  0  0  0  0  0  0
   15.2067   35.6140   32.6744 N   0  0  0  0  0  0  0  0  0  0  0  0
   14.6731   36.2273   34.9186 C   0  0  0  0  0  0  0  0  0  0  0  0
   13.8223   37.0457   35.5785 N   0  0  0  0  0  0  0  0  0  0  0  0
   16.1639   34.7595   33.1551 C   0  0  0  0  0  0  0  0  0  0  0  0
   15.6515   35.3491   35.4134 C   0  0  0  0  0  0  0  0  0  0  0  0
   16.3792   34.6310   34.5045 N   0  0  0  0  0  0  0  0  0  0  0  0
   15.9002   35.1934   36.8093 N   0  0  0  0  0  0  0  0  0  0  0  0
    9.8347   44.9856   32.1484 H   0  0  0  0  0  0  0  0  0  0  0  0
   11.3042   46.0994   34.4915 H   0  0  0  0  0  0  0  0  0  0  0  0
   11.9099   45.7264   32.9550 H   0  0  0  0  0  0  0  0  0  0  0  0
    7.8169   44.9442   33.6227 H   0  0  0  0  0  0  0  0  0  0  0  0
    8.3810   46.5993   33.2543 H   0  0  0  0  0  0  0  0  0  0  0  0
    8.2811   45.8322   37.9990 H   0  0  0  0  0  0  0  0  0  0  0  0
    8.8164   44.1276   38.1058 H   0  0  0  0  0  0  0  0  0  0  0  0
   11.2510   43.5797   37.3040 H   0  0  0  0  0  0  0  0  0  0  0  0
    9.9414   47.5560   38.3430 H   0  0  0  0  0  0  0  0  0  0  0  0
   13.5987   44.2845   37.6017 H   0  0  0  0  0  0  0  0  0  0  0  0
   12.2937   48.2416   38.6416 H   0  0  0  0  0  0  0  0  0  0  0  0
   14.1256   46.6129   38.2713 H   0  0  0  0  0  0  0  0  0  0  0  0
    9.8231   40.7212   31.7580 H   0  0  0  0  0  0  0  0  0  0  0  0
   11.3853   41.5435   31.4691 H   0  0  0  0  0  0  0  0  0  0  0  0
   11.6993   39.5067   30.3489 H   0  0  0  0  0  0  0  0  0  0  0  0
   10.1119   38.2722   32.6632 H   0  0  0  0  0  0  0  0  0  0  0  0
   13.6816   37.4635   31.2269 H   0  0  0  0  0  0  0  0  0  0  0  0
    9.0037   37.3828   30.9349 H   0  0  0  0  0  0  0  0  0  0  0  0
   11.2847   36.3041   32.4929 H   0  0  0  0  0  0  0  0  0  0  0  0
   11.8850   36.9591   29.7589 H   0  0  0  0  0  0  0  0  0  0  0  0
   12.3364   38.3601   34.7442 H   0  0  0  0  0  0  0  0  0  0  0  0
   16.7574   34.1791   32.4623 H   0  0  0  0  0  0  0  0  0  0  0  0
   15.3529   35.7356   37.5141 H   0  0  0  0  0  0  0  0  0  0  0  0
   16.6363   34.5317   37.1418 H   0  0  0  0  0  0  0  0  0  0  0  0
  1  2  2  0
  1  3  1  0
  3  4  1  0
  4  5  1  0
  6  1  1  0
  7  6  1  0
  6  8  1  0
  8  9  1  0
  9 10  1  0
  9 11  2  0
 10 12  1  0
 12 13  1  0
 13 14  2  0
 15 13  1  0
 14 16  1  0
 17 15  2  0
 16 18  2  0
 18 17  1  0
  4 19  2  0
  4 20  1  0
 21 20  1  0
 21 22  1  0
 22 23  1  0
 22 24  1  0
 23 25  1  0
 24 26  1  0
 24 27  1  0
 27 25  1  0
 25 28  1  0
 27 29  1  0
 30 28  1  0
 31 28  1  0
 32 30  2  0
 30 33  1  0
 34 31  2  0
 35 32  1  0
 33 36  2  0
 33 34  1  0
 37 35  2  0
 37 36  1  0
 36 38  1  0
  6 39  1  6
  7 40  1  0
  7 41  1  0
  8 42  1  0
  8 43  1  0
 12 44  1  0
 12 45  1  0
 14 46  1  0
 15 47  1  0
 16 48  1  0
 17 49  1  0
 18 50  1  0
 21 51  1  0
 21 52  1  0
 22 53  1  0
 24 54  1  0
 25 55  1  0
 26 56  1  0
 27 57  1  0
 29 58  1  0
 31 59  1  0
 35 60  1  0
 38 61  1  0
 38 62  1  0
M  CHG  1   5  -1
M  END
>  <EmbedRMS>  (251) 
0.08874874191336114

$$$$

     RDKit          3D

 62 65  0  0  0  0  0  0  0  0999 V2000
   10.2846   43.7734   33.8090 C   0  0  0  0  0  0  0  0  0  0  0  0
   11.4111   43.5878   34.3561 O   0  0  0  0  0  0  0  0  0  0  0  0
    9.3662   42.7321   33.7039 O   0  0  0  0  0  0  0  0  0  0  0  0
    9.8848   41.2343   34.2851 P   0  0  0  0  0  5  0  0  0  0  0  0
   10.3651   41.4664   35.8754 O   0  0  0  0  0  1  0  0  0  0  0  0
    9.9587   45.1101   33.2423 C   0  0  2  0  0  0  0  0  0  0  0  0
   11.0674   46.0376   33.4826 N   0  0  0  0  0  0  0  0  0  0  0  0
    8.6169   45.6579   33.7812 C   0  0  0  0  0  0  0  0  0  0  0  0
    8.6477   45.9344   35.2552 C   0  0  0  0  0  0  0  0  0  0  0  0
    8.6998   44.8668   36.1585 O   0  0  0  0  0  0  0  0  0  0  0  0
    8.6524   47.1267   35.6668 O   0  0  0  0  0  0  0  0  0  0  0  0
    8.9022   45.0385   37.5591 C   0  0  0  0  0  0  0  0  0  0  0  0
   10.3081   45.5027   37.8287 C   0  0  0  0  0  0  0  0  0  0  0  0
   10.5604   46.8215   38.2425 C   0  0  0  0  0  0  0  0  0  0  0  0
   11.3870   44.6292   37.6182 C   0  0  0  0  0  0  0  0  0  0  0  0
   11.8739   47.2548   38.4494 C   0  0  0  0  0  0  0  0  0  0  0  0
   12.6987   45.0664   37.8247 C   0  0  0  0  0  0  0  0  0  0  0  0
   12.9422   46.3782   38.2406 C   0  0  0  0  0  0  0  0  0  0  0  0
    8.8074   40.1914   34.2080 O   0  0  0  0  0  0  0  0  0  0  0  0
   11.2367   40.7914   33.3689 O   0  0  0  0  0  0  0  0  0  0  0  0
   10.9151   40.6900   31.9961 C   0  0  0  0  0  0  0  0  0  0  0  0
   11.5268   39.3900   31.4376 C   0  0  0  0  0  0  0  0  0  0  0  0
   12.7506   39.0918   32.0841 O   0  0  0  0  0  0  0  0  0  0  0  0
   10.6121   38.1916   31.6453 C   0  0  0  0  0  0  0  0  0  0  0  0
   12.9428   37.6854   32.0296 C   0  0  0  0  0  0  0  0  0  0  0  0
    9.6069   38.0858   30.6603 O   0  0  0  0  0  0  0  0  0  0  0  0
   11.5845   37.0187   31.6880 C   0  0  0  0  0  0  0  0  0  0  0  0
   13.4899   37.2164   33.3250 N   0  0  0  0  0  0  0  0  0  0  0  0
   11.6202   36.3063   30.4693 O   0  0  0  0  0  0  0  0  0  0  0  0
   14.4758   36.3264   33.5739 C   0  0  0  0  0  0  0  0  0  0  0  0
   13.1176   37.6308   34.5699 C   0  0  0  0  0  0  0  0  0  0  0  0
   15.2065   35.6139   32.6746 N   0  0  0  0  0  0  0  0  0  0  0  0
   14.6731   36.2267   34.9191 C   0  0  0  0  0  0  0  0  0  0  0  0
   13.8224   37.0450   35.5792 N   0  0  0  0  0  0  0  0  0  0  0  0
   16.1640   34.7596   33.1551 C   0  0  0  0  0  0  0  0  0  0  0  0
   15.6517   35.3489   35.4136 C   0  0  0  0  0  0  0  0  0  0  0  0
   16.3795   34.6310   34.5046 N   0  0  0  0  0  0  0  0  0  0  0  0
   15.9006   35.1931   36.8094 N   0  0  0  0  0  0  0  0  0  0  0  0
    9.8521   44.9777   32.1433 H   0  0  0  0  0  0  0  0  0  0  0  0
   10.8462   46.9500   33.0214 H   0  0  0  0  0  0  0  0  0  0  0  0
   11.1697   46.2229   34.5074 H   0  0  0  0  0  0  0  0  0  0  0  0
    7.8030   44.9310   33.5708 H   0  0  0  0  0  0  0  0  0  0  0  0
    8.3626   46.5924   33.2345 H   0  0  0  0  0  0  0  0  0  0  0  0
    8.1513   45.7504   37.9667 H   0  0  0  0  0  0  0  0  0  0  0  0
    8.7398   44.0627   38.0637 H   0  0  0  0  0  0  0  0  0  0  0  0
    9.7435   47.5147   38.3994 H   0  0  0  0  0  0  0  0  0  0  0  0
   11.2115   43.6129   37.2913 H   0  0  0  0  0  0  0  0  0  0  0  0
   12.0637   48.2716   38.7681 H   0  0  0  0  0  0  0  0  0  0  0  0
   13.5265   44.3889   37.6598 H   0  0  0  0  0  0  0  0  0  0  0  0
   13.9582   46.7158   38.3991 H   0  0  0  0  0  0  0  0  0  0  0  0
    9.8249   40.7191   31.7591 H   0  0  0  0  0  0  0  0  0  0  0  0
   11.3816   41.5528   31.4742 H   0  0  0  0  0  0  0  0  0  0  0  0
   11.7317   39.5340   30.3522 H   0  0  0  0  0  0  0  0  0  0  0  0
   10.1213   38.2682   32.6413 H   0  0  0  0  0  0  0  0  0  0  0  0
   13.6882   37.4711   31.2320 H   0  0  0  0  0  0  0  0  0  0  0  0
   10.0257   38.1752   29.7657 H   0  0  0  0  0  0  0  0  0  0  0  0
   11.2796   36.3124   32.4916 H   0  0  0  0  0  0  0  0  0  0  0  0
   11.9872   36.9100   29.7715 H   0  0  0  0  0  0  0  0  0  0  0  0
   12.3366   38.3597   34.7454 H   0  0  0  0  0  0  0  0  0  0  0  0
   16.7576   34.1795   32.4622 H   0  0  0  0  0  0  0  0  0  0  0  0
   15.3532   35.7351   37.5143 H   0  0  0  0  0  0  0  0  0  0  0  0
   16.6368   34.5316   37.1418 H   0  0  0  0  0  0  0  0  0  0  0  0
  1  2  2  0
  1  3  1  0
  3  4  1  0
  4  5  1  0
  6  1  1  0
  7  6  1  0
  6  8  1  0
  8  9  1  0
  9 10  1  0
  9 11  2  0
 10 12  1  0
 12 13  1  0
 13 14  2  0
 15 13  1  0
 14 16  1  0
 17 15  2  0
 16 18  2  0
 18 17  1  0
  4 19  2  0
  4 20  1  0
 21 20  1  0
 21 22  1  0
 22 23  1  0
 22 24  1  0
 23 25  1  0
 24 26  1  0
 24 27  1  0
 27 25  1  0
 25 28  1  0
 27 29  1  0
 30 28  1  0
 31 28  1  0
 32 30  2  0
 30 33  1  0
 34 31  2  0
 35 32  1  0
 33 36  2  0
 33 34  1  0
 37 35  2  0
 37 36  1  0
 36 38  1  0
  6 39  1  6
  7 40  1  0
  7 41  1  0
  8 42  1  0
  8 43  1  0
 12 44  1  0
 12 45  1  0
 14 46  1  0
 15 47  1  0
 16 48  1  0
 17 49  1  0
 18 50  1  0
 21 51  1  0
 21 52  1  0
 22 53  1  0
 24 54  1  0
 25 55  1  0
 26 56  1  0
 27 57  1  0
 29 58  1  0
 31 59  1  0
 35 60  1  0
 38 61  1  0
 38 62  1  0
M  CHG  1   5  -1
M  END
>  <EmbedRMS>  (252) 
0.08711599916291722

$$$$

     RDKit          3D

 62 65  0  0  0  0  0  0  0  0999 V2000
   10.2828   43.7755   33.8076 C   0  0  0  0  0  0  0  0  0  0  0  0
   11.4085   43.5914   34.3577 O   0  0  0  0  0  0  0  0  0  0  0  0
    9.3667   42.7319   33.7012 O   0  0  0  0  0  0  0  0  0  0  0  0
    9.8864   41.2345   34.2833 P   0  0  0  0  0  5  0  0  0  0  0  0
   10.3676   41.4693   35.8737 O   0  0  0  0  0  1  0  0  0  0  0  0
    9.9535   45.1118   33.2434 C   0  0  2  0  0  0  0  0  0  0  0  0
   11.0725   46.0268   33.4849 N   0  0  0  0  0  0  0  0  0  0  0  0
    8.6399   45.6442   33.8542 C   0  0  0  0  0  0  0  0  0  0  0  0
    8.2240   46.9354   33.2213 C   0  0  0  0  0  0  0  0  0  0  0  0
    8.5459   48.1442   33.8487 O   0  0  0  0  0  0  0  0  0  0  0  0
    7.6226   46.9235   32.1126 O   0  0  0  0  0  0  0  0  0  0  0  0
    8.1837   49.4193   33.3235 C   0  0  0  0  0  0  0  0  0  0  0  0
    6.7038   49.6465   33.4703 C   0  0  0  0  0  0  0  0  0  0  0  0
    6.1419   49.7990   34.7482 C   0  0  0  0  0  0  0  0  0  0  0  0
    5.8684   49.6812   32.3412 C   0  0  0  0  0  0  0  0  0  0  0  0
    4.7644   49.9919   34.8934 C   0  0  0  0  0  0  0  0  0  0  0  0
    4.4913   49.8742   32.4908 C   0  0  0  0  0  0  0  0  0  0  0  0
    3.9399   50.0302   33.7656 C   0  0  0  0  0  0  0  0  0  0  0  0
    8.8087   40.1917   34.2083 O   0  0  0  0  0  0  0  0  0  0  0  0
   11.2376   40.7913   33.3656 O   0  0  0  0  0  0  0  0  0  0  0  0
   10.9142   40.6851   31.9930 C   0  0  0  0  0  0  0  0  0  0  0  0
   11.5166   39.3773   31.4394 C   0  0  0  0  0  0  0  0  0  0  0  0
   12.7471   39.0855   32.0740 O   0  0  0  0  0  0  0  0  0  0  0  0
   10.6047   38.1867   31.6670 C   0  0  0  0  0  0  0  0  0  0  0  0
   12.9345   37.6791   32.0282 C   0  0  0  0  0  0  0  0  0  0  0  0
    9.6378   38.0917   30.6489 O   0  0  0  0  0  0  0  0  0  0  0  0
   11.5761   37.0129   31.7057 C   0  0  0  0  0  0  0  0  0  0  0  0
   13.4909   37.2177   33.3234 N   0  0  0  0  0  0  0  0  0  0  0  0
   11.6234   36.3371   30.4684 O   0  0  0  0  0  0  0  0  0  0  0  0
   14.4765   36.3271   33.5727 C   0  0  0  0  0  0  0  0  0  0  0  0
   13.1182   37.6315   34.5685 C   0  0  0  0  0  0  0  0  0  0  0  0
   15.2066   35.6137   32.6739 N   0  0  0  0  0  0  0  0  0  0  0  0
   14.6736   36.2276   34.9182 C   0  0  0  0  0  0  0  0  0  0  0  0
   13.8227   37.0457   35.5781 N   0  0  0  0  0  0  0  0  0  0  0  0
   16.1638   34.7593   33.1547 C   0  0  0  0  0  0  0  0  0  0  0  0
   15.6517   35.3492   35.4131 C   0  0  0  0  0  0  0  0  0  0  0  0
   16.3792   34.6309   34.5043 N   0  0  0  0  0  0  0  0  0  0  0  0
   15.9003   35.1934   36.8090 N   0  0  0  0  0  0  0  0  0  0  0  0
    9.8208   44.9853   32.1456 H   0  0  0  0  0  0  0  0  0  0  0  0
   10.9420   46.8853   32.9022 H   0  0  0  0  0  0  0  0  0  0  0  0
   11.0774   46.3245   34.4884 H   0  0  0  0  0  0  0  0  0  0  0  0
    7.8252   44.9026   33.7028 H   0  0  0  0  0  0  0  0  0  0  0  0
    8.7581   45.7916   34.9501 H   0  0  0  0  0  0  0  0  0  0  0  0
    8.7262   50.2040   33.8918 H   0  0  0  0  0  0  0  0  0  0  0  0
    8.5077   49.4981   32.2625 H   0  0  0  0  0  0  0  0  0  0  0  0
    6.7705   49.7664   35.6296 H   0  0  0  0  0  0  0  0  0  0  0  0
    6.2806   49.5569   31.3476 H   0  0  0  0  0  0  0  0  0  0  0  0
    4.3361   50.1101   35.8803 H   0  0  0  0  0  0  0  0  0  0  0  0
    3.8514   49.9011   31.6183 H   0  0  0  0  0  0  0  0  0  0  0  0
    2.8739   50.1788   33.8795 H   0  0  0  0  0  0  0  0  0  0  0  0
   11.3867   41.5415   31.4662 H   0  0  0  0  0  0  0  0  0  0  0  0
    9.8241   40.7211   31.7568 H   0  0  0  0  0  0  0  0  0  0  0  0
   11.6987   39.5012   30.3468 H   0  0  0  0  0  0  0  0  0  0  0  0
   10.1095   38.2771   32.6629 H   0  0  0  0  0  0  0  0  0  0  0  0
   13.6672   37.4545   31.2213 H   0  0  0  0  0  0  0  0  0  0  0  0
    8.9779   37.4157   30.9533 H   0  0  0  0  0  0  0  0  0  0  0  0
   11.2861   36.3041   32.5177 H   0  0  0  0  0  0  0  0  0  0  0  0
   10.8690   35.6918   30.4657 H   0  0  0  0  0  0  0  0  0  0  0  0
   12.3356   38.3587   34.7440 H   0  0  0  0  0  0  0  0  0  0  0  0
   16.7572   34.1786   32.4621 H   0  0  0  0  0  0  0  0  0  0  0  0
   16.6361   34.5315   37.1415 H   0  0  0  0  0  0  0  0  0  0  0  0
   15.3530   35.7358   37.5138 H   0  0  0  0  0  0  0  0  0  0  0  0
  1  2  2  0
  1  3  1  0
  3  4  1  0
  4  5  1  0
  6  1  1  0
  7  6  1  0
  6  8  1  0
  8  9  1  0
  9 10  1  0
  9 11  2  0
 10 12  1  0
 12 13  1  0
 13 14  2  0
 15 13  1  0
 14 16  1  0
 17 15  2  0
 16 18  2  0
 18 17  1  0
  4 19  2  0
  4 20  1  0
 21 20  1  0
 21 22  1  0
 22 23  1  0
 22 24  1  0
 23 25  1  0
 24 26  1  0
 24 27  1  0
 27 25  1  0
 25 28  1  0
 27 29  1  0
 30 28  1  0
 31 28  1  0
 32 30  2  0
 30 33  1  0
 34 31  2  0
 35 32  1  0
 33 36  2  0
 33 34  1  0
 37 35  2  0
 37 36  1  0
 36 38  1  0
  6 39  1  6
  7 40  1  0
  7 41  1  0
  8 42  1  0
  8 43  1  0
 12 44  1  0
 12 45  1  0
 14 46  1  0
 15 47  1  0
 16 48  1  0
 17 49  1  0
 18 50  1  0
 21 51  1  0
 21 52  1  0
 22 53  1  0
 24 54  1  0
 25 55  1  0
 26 56  1  0
 27 57  1  0
 29 58  1  0
 31 59  1  0
 35 60  1  0
 38 61  1  0
 38 62  1  0
M  CHG  1   5  -1
M  END
>  <EmbedRMS>  (253) 
0.08872888359585673

$$$$

     RDKit          3D

 62 65  0  0  0  0  0  0  0  0999 V2000
   10.2857   43.7730   33.8072 C   0  0  0  0  0  0  0  0  0  0  0  0
   11.4091   43.5892   34.3615 O   0  0  0  0  0  0  0  0  0  0  0  0
    9.3678   42.7314   33.7009 O   0  0  0  0  0  0  0  0  0  0  0  0
    9.8858   41.2338   34.2830 P   0  0  0  0  0  5  0  0  0  0  0  0
   10.3657   41.4663   35.8735 O   0  0  0  0  0  1  0  0  0  0  0  0
    9.9528   45.1145   33.2532 C   0  0  2  0  0  0  0  0  0  0  0  0
   11.0716   46.0333   33.4731 N   0  0  0  0  0  0  0  0  0  0  0  0
    8.6593   45.6684   33.8862 C   0  0  0  0  0  0  0  0  0  0  0  0
    8.8305   45.9891   35.3415 C   0  0  0  0  0  0  0  0  0  0  0  0
    8.8614   44.9503   36.2788 O   0  0  0  0  0  0  0  0  0  0  0  0
    8.9766   47.1884   35.7038 O   0  0  0  0  0  0  0  0  0  0  0  0
    9.1578   45.1514   37.6589 C   0  0  0  0  0  0  0  0  0  0  0  0
   10.6111   45.4995   37.8354 C   0  0  0  0  0  0  0  0  0  0  0  0
   10.9994   46.8083   38.1675 C   0  0  0  0  0  0  0  0  0  0  0  0
   11.5967   44.5226   37.6220 C   0  0  0  0  0  0  0  0  0  0  0  0
   12.3547   47.1303   38.2911 C   0  0  0  0  0  0  0  0  0  0  0  0
   12.9507   44.8485   37.7451 C   0  0  0  0  0  0  0  0  0  0  0  0
   13.3296   46.1513   38.0800 C   0  0  0  0  0  0  0  0  0  0  0  0
    8.8077   40.1915   34.2069 O   0  0  0  0  0  0  0  0  0  0  0  0
   11.2374   40.7907   33.3659 O   0  0  0  0  0  0  0  0  0  0  0  0
   10.9145   40.6851   31.9931 C   0  0  0  0  0  0  0  0  0  0  0  0
   11.5167   39.3774   31.4394 C   0  0  0  0  0  0  0  0  0  0  0  0
   12.7473   39.0855   32.0739 O   0  0  0  0  0  0  0  0  0  0  0  0
   10.6047   38.1868   31.6670 C   0  0  0  0  0  0  0  0  0  0  0  0
   12.9346   37.6791   32.0282 C   0  0  0  0  0  0  0  0  0  0  0  0
    9.6378   38.0918   30.6489 O   0  0  0  0  0  0  0  0  0  0  0  0
   11.5761   37.0129   31.7057 C   0  0  0  0  0  0  0  0  0  0  0  0
   13.4909   37.2177   33.3234 N   0  0  0  0  0  0  0  0  0  0  0  0
   11.6234   36.3372   30.4684 O   0  0  0  0  0  0  0  0  0  0  0  0
   14.4765   36.3272   33.5727 C   0  0  0  0  0  0  0  0  0  0  0  0
   13.1182   37.6316   34.5686 C   0  0  0  0  0  0  0  0  0  0  0  0
   15.2066   35.6137   32.6739 N   0  0  0  0  0  0  0  0  0  0  0  0
   14.6735   36.2276   34.9182 C   0  0  0  0  0  0  0  0  0  0  0  0
   13.8227   37.0458   35.5781 N   0  0  0  0  0  0  0  0  0  0  0  0
   16.1638   34.7593   33.1548 C   0  0  0  0  0  0  0  0  0  0  0  0
   15.6517   35.3493   35.4131 C   0  0  0  0  0  0  0  0  0  0  0  0
   16.3792   34.6309   34.5043 N   0  0  0  0  0  0  0  0  0  0  0  0
   15.9002   35.1934   36.8090 N   0  0  0  0  0  0  0  0  0  0  0  0
    9.7830   44.9997   32.1590 H   0  0  0  0  0  0  0  0  0  0  0  0
   11.8821   45.7119   32.8939 H   0  0  0  0  0  0  0  0  0  0  0  0
   10.8086   46.9710   33.0910 H   0  0  0  0  0  0  0  0  0  0  0  0
    7.8326   44.9347   33.7703 H   0  0  0  0  0  0  0  0  0  0  0  0
    8.3525   46.5873   33.3400 H   0  0  0  0  0  0  0  0  0  0  0  0
    8.4950   45.9396   38.0788 H   0  0  0  0  0  0  0  0  0  0  0  0
    8.9409   44.2115   38.2091 H   0  0  0  0  0  0  0  0  0  0  0  0
   10.2557   47.5793   38.3260 H   0  0  0  0  0  0  0  0  0  0  0  0
   11.3160   43.5116   37.3585 H   0  0  0  0  0  0  0  0  0  0  0  0
   12.6493   48.1398   38.5472 H   0  0  0  0  0  0  0  0  0  0  0  0
   13.7062   44.0915   37.5788 H   0  0  0  0  0  0  0  0  0  0  0  0
   14.3781   46.4026   38.1741 H   0  0  0  0  0  0  0  0  0  0  0  0
   11.3876   41.5416   31.4668 H   0  0  0  0  0  0  0  0  0  0  0  0
    9.8245   40.7215   31.7564 H   0  0  0  0  0  0  0  0  0  0  0  0
   11.6988   39.5013   30.3468 H   0  0  0  0  0  0  0  0  0  0  0  0
   10.1096   38.2772   32.6629 H   0  0  0  0  0  0  0  0  0  0  0  0
   13.6672   37.4545   31.2213 H   0  0  0  0  0  0  0  0  0  0  0  0
    8.9779   37.4159   30.9534 H   0  0  0  0  0  0  0  0  0  0  0  0
   11.2860   36.3042   32.5177 H   0  0  0  0  0  0  0  0  0  0  0  0
   10.8689   35.6919   30.4658 H   0  0  0  0  0  0  0  0  0  0  0  0
   12.3357   38.3588   34.7440 H   0  0  0  0  0  0  0  0  0  0  0  0
   16.7572   34.1786   32.4621 H   0  0  0  0  0  0  0  0  0  0  0  0
   16.6361   34.5316   37.1416 H   0  0  0  0  0  0  0  0  0  0  0  0
   15.3530   35.7358   37.5138 H   0  0  0  0  0  0  0  0  0  0  0  0
  1  2  2  0
  1  3  1  0
  3  4  1  0
  4  5  1  0
  6  1  1  0
  7  6  1  0
  6  8  1  0
  8  9  1  0
  9 10  1  0
  9 11  2  0
 10 12  1  0
 12 13  1  0
 13 14  2  0
 15 13  1  0
 14 16  1  0
 17 15  2  0
 16 18  2  0
 18 17  1  0
  4 19  2  0
  4 20  1  0
 21 20  1  0
 21 22  1  0
 22 23  1  0
 22 24  1  0
 23 25  1  0
 24 26  1  0
 24 27  1  0
 27 25  1  0
 25 28  1  0
 27 29  1  0
 30 28  1  0
 31 28  1  0
 32 30  2  0
 30 33  1  0
 34 31  2  0
 35 32  1  0
 33 36  2  0
 33 34  1  0
 37 35  2  0
 37 36  1  0
 36 38  1  0
  6 39  1  6
  7 40  1  0
  7 41  1  0
  8 42  1  0
  8 43  1  0
 12 44  1  0
 12 45  1  0
 14 46  1  0
 15 47  1  0
 16 48  1  0
 17 49  1  0
 18 50  1  0
 21 51  1  0
 21 52  1  0
 22 53  1  0
 24 54  1  0
 25 55  1  0
 26 56  1  0
 27 57  1  0
 29 58  1  0
 31 59  1  0
 35 60  1  0
 38 61  1  0
 38 62  1  0
M  CHG  1   5  -1
M  END
>  <EmbedRMS>  (254) 
0.08927461398829846

$$$$

     RDKit          3D

 62 65  0  0  0  0  0  0  0  0999 V2000
   10.2872   43.7714   33.8025 C   0  0  0  0  0  0  0  0  0  0  0  0
   11.4091   43.5882   34.3603 O   0  0  0  0  0  0  0  0  0  0  0  0
    9.3679   42.7308   33.6989 O   0  0  0  0  0  0  0  0  0  0  0  0
    9.8852   41.2341   34.2842 P   0  0  0  0  0  5  0  0  0  0  0  0
   10.3670   41.4691   35.8736 O   0  0  0  0  0  1  0  0  0  0  0  0
    9.9540   45.1146   33.2512 C   0  0  2  0  0  0  0  0  0  0  0  0
   11.0693   46.0350   33.4803 N   0  0  0  0  0  0  0  0  0  0  0  0
    8.6563   45.6647   33.8785 C   0  0  0  0  0  0  0  0  0  0  0  0
    8.7833   45.8838   35.3576 C   0  0  0  0  0  0  0  0  0  0  0  0
    8.7815   44.7811   36.2157 O   0  0  0  0  0  0  0  0  0  0  0  0
    8.9163   47.0532   35.8114 O   0  0  0  0  0  0  0  0  0  0  0  0
    8.8958   44.9000   37.6288 C   0  0  0  0  0  0  0  0  0  0  0  0
    8.9659   43.5276   38.2319 C   0  0  0  0  0  0  0  0  0  0  0  0
    7.8273   42.7056   38.2363 C   0  0  0  0  0  0  0  0  0  0  0  0
   10.1763   43.0314   38.7451 C   0  0  0  0  0  0  0  0  0  0  0  0
    7.8959   41.4103   38.7588 C   0  0  0  0  0  0  0  0  0  0  0  0
   10.2399   41.7362   39.2688 C   0  0  0  0  0  0  0  0  0  0  0  0
    9.1008   40.9264   39.2758 C   0  0  0  0  0  0  0  0  0  0  0  0
    8.8073   40.1916   34.2095 O   0  0  0  0  0  0  0  0  0  0  0  0
   11.2368   40.7892   33.3685 O   0  0  0  0  0  0  0  0  0  0  0  0
   10.9159   40.6888   31.9953 C   0  0  0  0  0  0  0  0  0  0  0  0
   11.5251   39.3872   31.4365 C   0  0  0  0  0  0  0  0  0  0  0  0
   12.7486   39.0879   32.0803 O   0  0  0  0  0  0  0  0  0  0  0  0
   10.6100   38.1909   31.6471 C   0  0  0  0  0  0  0  0  0  0  0  0
   12.9348   37.6808   32.0293 C   0  0  0  0  0  0  0  0  0  0  0  0
    9.6126   38.0874   30.6547 O   0  0  0  0  0  0  0  0  0  0  0  0
   11.5766   37.0133   31.7026 C   0  0  0  0  0  0  0  0  0  0  0  0
   13.4901   37.2165   33.3237 N   0  0  0  0  0  0  0  0  0  0  0  0
   11.6321   36.3231   30.4741 O   0  0  0  0  0  0  0  0  0  0  0  0
   14.4762   36.3266   33.5728 C   0  0  0  0  0  0  0  0  0  0  0  0
   13.1179   37.6308   34.5690 C   0  0  0  0  0  0  0  0  0  0  0  0
   15.2065   35.6136   32.6739 N   0  0  0  0  0  0  0  0  0  0  0  0
   14.6736   36.2272   34.9182 C   0  0  0  0  0  0  0  0  0  0  0  0
   13.8228   37.0453   35.5784 N   0  0  0  0  0  0  0  0  0  0  0  0
   16.1639   34.7593   33.1547 C   0  0  0  0  0  0  0  0  0  0  0  0
   15.6518   35.3491   35.4131 C   0  0  0  0  0  0  0  0  0  0  0  0
   16.3794   34.6309   34.5042 N   0  0  0  0  0  0  0  0  0  0  0  0
   15.9004   35.1933   36.8090 N   0  0  0  0  0  0  0  0  0  0  0  0
    9.7905   45.0046   32.1555 H   0  0  0  0  0  0  0  0  0  0  0  0
   11.8836   45.7170   32.9046 H   0  0  0  0  0  0  0  0  0  0  0  0
   10.8072   46.9734   33.0993 H   0  0  0  0  0  0  0  0  0  0  0  0
    8.3863   46.6227   33.3825 H   0  0  0  0  0  0  0  0  0  0  0  0
    7.8189   44.9583   33.6905 H   0  0  0  0  0  0  0  0  0  0  0  0
    8.0105   45.4390   38.0305 H   0  0  0  0  0  0  0  0  0  0  0  0
    9.8053   45.4876   37.8832 H   0  0  0  0  0  0  0  0  0  0  0  0
    6.8904   43.0665   37.8301 H   0  0  0  0  0  0  0  0  0  0  0  0
   11.0704   43.6424   38.7353 H   0  0  0  0  0  0  0  0  0  0  0  0
    7.0157   40.7805   38.7598 H   0  0  0  0  0  0  0  0  0  0  0  0
   11.1740   41.3581   39.6637 H   0  0  0  0  0  0  0  0  0  0  0  0
    9.1528   39.9230   39.6782 H   0  0  0  0  0  0  0  0  0  0  0  0
    9.8259   40.7203   31.7578 H   0  0  0  0  0  0  0  0  0  0  0  0
   11.3847   41.5506   31.4740 H   0  0  0  0  0  0  0  0  0  0  0  0
   11.7272   39.5288   30.3502 H   0  0  0  0  0  0  0  0  0  0  0  0
   10.1122   38.2731   32.6391 H   0  0  0  0  0  0  0  0  0  0  0  0
   13.6685   37.4591   31.2225 H   0  0  0  0  0  0  0  0  0  0  0  0
   10.0513   38.1110   29.7648 H   0  0  0  0  0  0  0  0  0  0  0  0
   11.2801   36.3128   32.5195 H   0  0  0  0  0  0  0  0  0  0  0  0
   10.8625   35.6960   30.4646 H   0  0  0  0  0  0  0  0  0  0  0  0
   12.3356   38.3582   34.7446 H   0  0  0  0  0  0  0  0  0  0  0  0
   16.7574   34.1788   32.4620 H   0  0  0  0  0  0  0  0  0  0  0  0
   16.6364   34.5315   37.1415 H   0  0  0  0  0  0  0  0  0  0  0  0
   15.3531   35.7356   37.5138 H   0  0  0  0  0  0  0  0  0  0  0  0
  1  2  2  0
  1  3  1  0
  3  4  1  0
  4  5  1  0
  6  1  1  0
  7  6  1  0
  6  8  1  0
  8  9  1  0
  9 10  1  0
  9 11  2  0
 10 12  1  0
 12 13  1  0
 13 14  2  0
 15 13  1  0
 14 16  1  0
 17 15  2  0
 16 18  2  0
 18 17  1  0
  4 19  2  0
  4 20  1  0
 21 20  1  0
 21 22  1  0
 22 23  1  0
 22 24  1  0
 23 25  1  0
 24 26  1  0
 24 27  1  0
 27 25  1  0
 25 28  1  0
 27 29  1  0
 30 28  1  0
 31 28  1  0
 32 30  2  0
 30 33  1  0
 34 31  2  0
 35 32  1  0
 33 36  2  0
 33 34  1  0
 37 35  2  0
 37 36  1  0
 36 38  1  0
  6 39  1  6
  7 40  1  0
  7 41  1  0
  8 42  1  0
  8 43  1  0
 12 44  1  0
 12 45  1  0
 14 46  1  0
 15 47  1  0
 16 48  1  0
 17 49  1  0
 18 50  1  0
 21 51  1  0
 21 52  1  0
 22 53  1  0
 24 54  1  0
 25 55  1  0
 26 56  1  0
 27 57  1  0
 29 58  1  0
 31 59  1  0
 35 60  1  0
 38 61  1  0
 38 62  1  0
M  CHG  1   5  -1
M  END
>  <EmbedRMS>  (255) 
0.08817160571316991

$$$$

     RDKit          3D

 62 65  0  0  0  0  0  0  0  0999 V2000
   10.2822   43.7752   33.8088 C   0  0  0  0  0  0  0  0  0  0  0  0
   11.4051   43.5917   34.3647 O   0  0  0  0  0  0  0  0  0  0  0  0
    9.3711   42.7285   33.6947 O   0  0  0  0  0  0  0  0  0  0  0  0
    9.8867   41.2333   34.2832 P   0  0  0  0  0  5  0  0  0  0  0  0
   10.3658   41.4707   35.8739 O   0  0  0  0  0  1  0  0  0  0  0  0
    9.9447   45.1225   33.2623 C   0  0  2  0  0  0  0  0  0  0  0  0
   11.0794   46.0244   33.4671 N   0  0  0  0  0  0  0  0  0  0  0  0
    8.6958   45.7027   33.9596 C   0  0  0  0  0  0  0  0  0  0  0  0
    7.4508   44.9446   33.6123 C   0  0  0  0  0  0  0  0  0  0  0  0
    6.9030   44.0576   34.5459 O   0  0  0  0  0  0  0  0  0  0  0  0
    6.9283   45.0874   32.4732 O   0  0  0  0  0  0  0  0  0  0  0  0
    5.7481   43.2628   34.2874 C   0  0  0  0  0  0  0  0  0  0  0  0
    4.5123   44.1203   34.2725 C   0  0  0  0  0  0  0  0  0  0  0  0
    4.0705   44.7329   35.4563 C   0  0  0  0  0  0  0  0  0  0  0  0
    3.8050   44.3377   33.0781 C   0  0  0  0  0  0  0  0  0  0  0  0
    2.9324   45.5454   35.4463 C   0  0  0  0  0  0  0  0  0  0  0  0
    2.6674   45.1511   33.0724 C   0  0  0  0  0  0  0  0  0  0  0  0
    2.2310   45.7539   34.2555 C   0  0  0  0  0  0  0  0  0  0  0  0
    8.8079   40.1917   34.2080 O   0  0  0  0  0  0  0  0  0  0  0  0
   11.2379   40.7882   33.3681 O   0  0  0  0  0  0  0  0  0  0  0  0
   10.9161   40.6878   31.9949 C   0  0  0  0  0  0  0  0  0  0  0  0
   11.5263   39.3869   31.4361 C   0  0  0  0  0  0  0  0  0  0  0  0
   12.7494   39.0890   32.0814 O   0  0  0  0  0  0  0  0  0  0  0  0
   10.6124   38.1893   31.6460 C   0  0  0  0  0  0  0  0  0  0  0  0
   12.9374   37.6824   32.0300 C   0  0  0  0  0  0  0  0  0  0  0  0
    9.6150   38.0838   30.6538 O   0  0  0  0  0  0  0  0  0  0  0  0
   11.5793   37.0135   31.7013 C   0  0  0  0  0  0  0  0  0  0  0  0
   13.4906   37.2169   33.3242 N   0  0  0  0  0  0  0  0  0  0  0  0
   11.6216   36.3251   30.4725 O   0  0  0  0  0  0  0  0  0  0  0  0
   14.4763   36.3266   33.5731 C   0  0  0  0  0  0  0  0  0  0  0  0
   13.1181   37.6308   34.5693 C   0  0  0  0  0  0  0  0  0  0  0  0
   15.2066   35.6137   32.6740 N   0  0  0  0  0  0  0  0  0  0  0  0
   14.6736   36.2270   34.9185 C   0  0  0  0  0  0  0  0  0  0  0  0
   13.8229   37.0451   35.5787 N   0  0  0  0  0  0  0  0  0  0  0  0
   16.1639   34.7593   33.1547 C   0  0  0  0  0  0  0  0  0  0  0  0
   15.6519   35.3489   35.4132 C   0  0  0  0  0  0  0  0  0  0  0  0
   16.3795   34.6308   34.5042 N   0  0  0  0  0  0  0  0  0  0  0  0
   15.9006   35.1931   36.8090 N   0  0  0  0  0  0  0  0  0  0  0  0
    9.7484   45.0260   32.1701 H   0  0  0  0  0  0  0  0  0  0  0  0
   10.8355   46.9617   33.0715 H   0  0  0  0  0  0  0  0  0  0  0  0
   11.8818   45.6827   32.8881 H   0  0  0  0  0  0  0  0  0  0  0  0
    8.5503   46.7599   33.6482 H   0  0  0  0  0  0  0  0  0  0  0  0
    8.8401   45.6988   35.0624 H   0  0  0  0  0  0  0  0  0  0  0  0
    5.6511   42.5058   35.0940 H   0  0  0  0  0  0  0  0  0  0  0  0
    5.8761   42.7094   33.3311 H   0  0  0  0  0  0  0  0  0  0  0  0
    4.6085   44.5819   36.3841 H   0  0  0  0  0  0  0  0  0  0  0  0
    4.1339   43.8811   32.1528 H   0  0  0  0  0  0  0  0  0  0  0  0
    2.5951   46.0147   36.3615 H   0  0  0  0  0  0  0  0  0  0  0  0
    2.1250   45.3154   32.1503 H   0  0  0  0  0  0  0  0  0  0  0  0
    1.3508   46.3836   34.2492 H   0  0  0  0  0  0  0  0  0  0  0  0
    9.8260   40.7181   31.7578 H   0  0  0  0  0  0  0  0  0  0  0  0
   11.3839   41.5501   31.4734 H   0  0  0  0  0  0  0  0  0  0  0  0
   11.7292   39.5285   30.3500 H   0  0  0  0  0  0  0  0  0  0  0  0
   10.1141   38.2720   32.6379 H   0  0  0  0  0  0  0  0  0  0  0  0
   13.6726   37.4631   31.2239 H   0  0  0  0  0  0  0  0  0  0  0  0
   10.0535   38.1084   29.7638 H   0  0  0  0  0  0  0  0  0  0  0  0
   11.2645   36.3134   32.5107 H   0  0  0  0  0  0  0  0  0  0  0  0
   12.1546   35.5030   30.6316 H   0  0  0  0  0  0  0  0  0  0  0  0
   12.3361   38.3585   34.7449 H   0  0  0  0  0  0  0  0  0  0  0  0
   16.7574   34.1788   32.4619 H   0  0  0  0  0  0  0  0  0  0  0  0
   16.6366   34.5314   37.1415 H   0  0  0  0  0  0  0  0  0  0  0  0
   15.3533   35.7353   37.5139 H   0  0  0  0  0  0  0  0  0  0  0  0
  1  2  2  0
  1  3  1  0
  3  4  1  0
  4  5  1  0
  6  1  1  0
  7  6  1  0
  6  8  1  0
  8  9  1  0
  9 10  1  0
  9 11  2  0
 10 12  1  0
 12 13  1  0
 13 14  2  0
 15 13  1  0
 14 16  1  0
 17 15  2  0
 16 18  2  0
 18 17  1  0
  4 19  2  0
  4 20  1  0
 21 20  1  0
 21 22  1  0
 22 23  1  0
 22 24  1  0
 23 25  1  0
 24 26  1  0
 24 27  1  0
 27 25  1  0
 25 28  1  0
 27 29  1  0
 30 28  1  0
 31 28  1  0
 32 30  2  0
 30 33  1  0
 34 31  2  0
 35 32  1  0
 33 36  2  0
 33 34  1  0
 37 35  2  0
 37 36  1  0
 36 38  1  0
  6 39  1  6
  7 40  1  0
  7 41  1  0
  8 42  1  0
  8 43  1  0
 12 44  1  0
 12 45  1  0
 14 46  1  0
 15 47  1  0
 16 48  1  0
 17 49  1  0
 18 50  1  0
 21 51  1  0
 21 52  1  0
 22 53  1  0
 24 54  1  0
 25 55  1  0
 26 56  1  0
 27 57  1  0
 29 58  1  0
 31 59  1  0
 35 60  1  0
 38 61  1  0
 38 62  1  0
M  CHG  1   5  -1
M  END
>  <EmbedRMS>  (256) 
0.08843517836365425

$$$$

     RDKit          3D

 62 65  0  0  0  0  0  0  0  0999 V2000
   10.2860   43.7718   33.8043 C   0  0  0  0  0  0  0  0  0  0  0  0
   11.4113   43.5870   34.3545 O   0  0  0  0  0  0  0  0  0  0  0  0
    9.3668   42.7312   33.7003 O   0  0  0  0  0  0  0  0  0  0  0  0
    9.8847   41.2346   34.2852 P   0  0  0  0  0  5  0  0  0  0  0  0
   10.3651   41.4710   35.8756 O   0  0  0  0  0  1  0  0  0  0  0  0
    9.9567   45.1117   33.2466 C   0  0  2  0  0  0  0  0  0  0  0  0
   11.0672   46.0364   33.4856 N   0  0  0  0  0  0  0  0  0  0  0  0
    8.6223   45.6579   33.8038 C   0  0  0  0  0  0  0  0  0  0  0  0
    8.6148   45.7708   35.3001 C   0  0  0  0  0  0  0  0  0  0  0  0
    8.3967   44.6252   36.0739 O   0  0  0  0  0  0  0  0  0  0  0  0
    8.8342   46.8864   35.8463 O   0  0  0  0  0  0  0  0  0  0  0  0
    8.3796   44.6330   37.4990 C   0  0  0  0  0  0  0  0  0  0  0  0
    7.1244   45.2896   38.0043 C   0  0  0  0  0  0  0  0  0  0  0  0
    5.8801   44.6710   37.8014 C   0  0  0  0  0  0  0  0  0  0  0  0
    7.1780   46.5336   38.6552 C   0  0  0  0  0  0  0  0  0  0  0  0
    4.7069   45.2846   38.2516 C   0  0  0  0  0  0  0  0  0  0  0  0
    6.0024   47.1439   39.1037 C   0  0  0  0  0  0  0  0  0  0  0  0
    4.7680   46.5198   38.9029 C   0  0  0  0  0  0  0  0  0  0  0  0
    8.8073   40.1916   34.2095 O   0  0  0  0  0  0  0  0  0  0  0  0
   11.2365   40.7903   33.3696 O   0  0  0  0  0  0  0  0  0  0  0  0
   10.9152   40.6897   31.9965 C   0  0  0  0  0  0  0  0  0  0  0  0
   11.5268   39.3899   31.4376 C   0  0  0  0  0  0  0  0  0  0  0  0
   12.7507   39.0917   32.0840 O   0  0  0  0  0  0  0  0  0  0  0  0
   10.6121   38.1916   31.6453 C   0  0  0  0  0  0  0  0  0  0  0  0
   12.9429   37.6853   32.0295 C   0  0  0  0  0  0  0  0  0  0  0  0
    9.6070   38.0858   30.6603 O   0  0  0  0  0  0  0  0  0  0  0  0
   11.5845   37.0186   31.6880 C   0  0  0  0  0  0  0  0  0  0  0  0
   13.4899   37.2163   33.3250 N   0  0  0  0  0  0  0  0  0  0  0  0
   11.6202   36.3063   30.4693 O   0  0  0  0  0  0  0  0  0  0  0  0
   14.4759   36.3263   33.5738 C   0  0  0  0  0  0  0  0  0  0  0  0
   13.1176   37.6307   34.5699 C   0  0  0  0  0  0  0  0  0  0  0  0
   15.2065   35.6139   32.6746 N   0  0  0  0  0  0  0  0  0  0  0  0
   14.6731   36.2267   34.9191 C   0  0  0  0  0  0  0  0  0  0  0  0
   13.8224   37.0450   35.5792 N   0  0  0  0  0  0  0  0  0  0  0  0
   16.1640   34.7596   33.1551 C   0  0  0  0  0  0  0  0  0  0  0  0
   15.6517   35.3489   35.4136 C   0  0  0  0  0  0  0  0  0  0  0  0
   16.3795   34.6310   34.5046 N   0  0  0  0  0  0  0  0  0  0  0  0
   15.9006   35.1931   36.8094 N   0  0  0  0  0  0  0  0  0  0  0  0
    9.8407   44.9885   32.1474 H   0  0  0  0  0  0  0  0  0  0  0  0
   10.8572   46.9421   33.0063 H   0  0  0  0  0  0  0  0  0  0  0  0
   11.1535   46.2384   34.5084 H   0  0  0  0  0  0  0  0  0  0  0  0
    7.7920   44.9864   33.4951 H   0  0  0  0  0  0  0  0  0  0  0  0
    8.4149   46.6535   33.3545 H   0  0  0  0  0  0  0  0  0  0  0  0
    8.4066   43.5828   37.8591 H   0  0  0  0  0  0  0  0  0  0  0  0
    9.2920   45.1372   37.8867 H   0  0  0  0  0  0  0  0  0  0  0  0
    5.8203   43.7161   37.2938 H   0  0  0  0  0  0  0  0  0  0  0  0
    8.1266   47.0314   38.8134 H   0  0  0  0  0  0  0  0  0  0  0  0
    3.7503   44.8034   38.0940 H   0  0  0  0  0  0  0  0  0  0  0  0
    6.0481   48.1019   39.6055 H   0  0  0  0  0  0  0  0  0  0  0  0
    3.8591   46.9939   39.2500 H   0  0  0  0  0  0  0  0  0  0  0  0
   11.3820   41.5527   31.4752 H   0  0  0  0  0  0  0  0  0  0  0  0
    9.8250   40.7189   31.7593 H   0  0  0  0  0  0  0  0  0  0  0  0
   11.7316   39.5341   30.3523 H   0  0  0  0  0  0  0  0  0  0  0  0
   10.1213   38.2681   32.6413 H   0  0  0  0  0  0  0  0  0  0  0  0
   13.6882   37.4709   31.2319 H   0  0  0  0  0  0  0  0  0  0  0  0
   10.0257   38.1752   29.7656 H   0  0  0  0  0  0  0  0  0  0  0  0
   11.2796   36.3123   32.4915 H   0  0  0  0  0  0  0  0  0  0  0  0
   11.9872   36.9100   29.7715 H   0  0  0  0  0  0  0  0  0  0  0  0
   12.3365   38.3596   34.7453 H   0  0  0  0  0  0  0  0  0  0  0  0
   16.7576   34.1794   32.4622 H   0  0  0  0  0  0  0  0  0  0  0  0
   16.6368   34.5316   37.1418 H   0  0  0  0  0  0  0  0  0  0  0  0
   15.3532   35.7351   37.5143 H   0  0  0  0  0  0  0  0  0  0  0  0
  1  2  2  0
  1  3  1  0
  3  4  1  0
  4  5  1  0
  6  1  1  0
  7  6  1  0
  6  8  1  0
  8  9  1  0
  9 10  1  0
  9 11  2  0
 10 12  1  0
 12 13  1  0
 13 14  2  0
 15 13  1  0
 14 16  1  0
 17 15  2  0
 16 18  2  0
 18 17  1  0
  4 19  2  0
  4 20  1  0
 21 20  1  0
 21 22  1  0
 22 23  1  0
 22 24  1  0
 23 25  1  0
 24 26  1  0
 24 27  1  0
 27 25  1  0
 25 28  1  0
 27 29  1  0
 30 28  1  0
 31 28  1  0
 32 30  2  0
 30 33  1  0
 34 31  2  0
 35 32  1  0
 33 36  2  0
 33 34  1  0
 37 35  2  0
 37 36  1  0
 36 38  1  0
  6 39  1  6
  7 40  1  0
  7 41  1  0
  8 42  1  0
  8 43  1  0
 12 44  1  0
 12 45  1  0
 14 46  1  0
 15 47  1  0
 16 48  1  0
 17 49  1  0
 18 50  1  0
 21 51  1  0
 21 52  1  0
 22 53  1  0
 24 54  1  0
 25 55  1  0
 26 56  1  0
 27 57  1  0
 29 58  1  0
 31 59  1  0
 35 60  1  0
 38 61  1  0
 38 62  1  0
M  CHG  1   5  -1
M  END
>  <EmbedRMS>  (257) 
0.08687050315487278

$$$$

     RDKit          3D

 62 65  0  0  0  0  0  0  0  0999 V2000
   10.2821   43.7752   33.8088 C   0  0  0  0  0  0  0  0  0  0  0  0
   11.4052   43.5918   34.3647 O   0  0  0  0  0  0  0  0  0  0  0  0
    9.3710   42.7286   33.6950 O   0  0  0  0  0  0  0  0  0  0  0  0
    9.8864   41.2336   34.2838 P   0  0  0  0  0  5  0  0  0  0  0  0
   10.3655   41.4709   35.8744 O   0  0  0  0  0  1  0  0  0  0  0  0
    9.9446   45.1225   33.2622 C   0  0  2  0  0  0  0  0  0  0  0  0
   11.0793   46.0244   33.4672 N   0  0  0  0  0  0  0  0  0  0  0  0
    8.6955   45.7026   33.9592 C   0  0  0  0  0  0  0  0  0  0  0  0
    7.4508   44.9440   33.6121 C   0  0  0  0  0  0  0  0  0  0  0  0
    6.9043   44.0556   34.5453 O   0  0  0  0  0  0  0  0  0  0  0  0
    6.9276   45.0871   32.4734 O   0  0  0  0  0  0  0  0  0  0  0  0
    5.7518   43.2578   34.2858 C   0  0  0  0  0  0  0  0  0  0  0  0
    4.5136   44.1117   34.2704 C   0  0  0  0  0  0  0  0  0  0  0  0
    3.8063   44.3274   33.0758 C   0  0  0  0  0  0  0  0  0  0  0  0
    4.0692   44.7226   35.4542 C   0  0  0  0  0  0  0  0  0  0  0  0
    2.6662   45.1373   33.0698 C   0  0  0  0  0  0  0  0  0  0  0  0
    2.9286   45.5315   35.4440 C   0  0  0  0  0  0  0  0  0  0  0  0
    2.2272   45.7383   34.2529 C   0  0  0  0  0  0  0  0  0  0  0  0
    8.8079   40.1917   34.2082 O   0  0  0  0  0  0  0  0  0  0  0  0
   11.2379   40.7887   33.3690 O   0  0  0  0  0  0  0  0  0  0  0  0
   10.9163   40.6894   31.9959 C   0  0  0  0  0  0  0  0  0  0  0  0
   11.5273   39.3896   31.4370 C   0  0  0  0  0  0  0  0  0  0  0  0
   12.7511   39.0913   32.0834 O   0  0  0  0  0  0  0  0  0  0  0  0
   10.6123   38.1916   31.6451 C   0  0  0  0  0  0  0  0  0  0  0  0
   12.9429   37.6850   32.0294 C   0  0  0  0  0  0  0  0  0  0  0  0
    9.6069   38.0858   30.6603 O   0  0  0  0  0  0  0  0  0  0  0  0
   11.5844   37.0185   31.6879 C   0  0  0  0  0  0  0  0  0  0  0  0
   13.4899   37.2162   33.3249 N   0  0  0  0  0  0  0  0  0  0  0  0
   11.6200   36.3061   30.4692 O   0  0  0  0  0  0  0  0  0  0  0  0
   14.4759   36.3263   33.5738 C   0  0  0  0  0  0  0  0  0  0  0  0
   13.1175   37.6307   34.5698 C   0  0  0  0  0  0  0  0  0  0  0  0
   15.2065   35.6138   32.6746 N   0  0  0  0  0  0  0  0  0  0  0  0
   14.6731   36.2267   34.9191 C   0  0  0  0  0  0  0  0  0  0  0  0
   13.8224   37.0450   35.5792 N   0  0  0  0  0  0  0  0  0  0  0  0
   16.1640   34.7595   33.1551 C   0  0  0  0  0  0  0  0  0  0  0  0
   15.6517   35.3489   35.4136 C   0  0  0  0  0  0  0  0  0  0  0  0
   16.3795   34.6310   34.5046 N   0  0  0  0  0  0  0  0  0  0  0  0
   15.9006   35.1931   36.8094 N   0  0  0  0  0  0  0  0  0  0  0  0
    9.7485   45.0260   32.1700 H   0  0  0  0  0  0  0  0  0  0  0  0
   11.8818   45.6829   32.8882 H   0  0  0  0  0  0  0  0  0  0  0  0
   10.8353   46.9618   33.0716 H   0  0  0  0  0  0  0  0  0  0  0  0
    8.5498   46.7597   33.6474 H   0  0  0  0  0  0  0  0  0  0  0  0
    8.8397   45.6992   35.0621 H   0  0  0  0  0  0  0  0  0  0  0  0
    5.8819   42.7051   33.3293 H   0  0  0  0  0  0  0  0  0  0  0  0
    5.6564   42.5002   35.0920 H   0  0  0  0  0  0  0  0  0  0  0  0
    4.1370   43.8722   32.1505 H   0  0  0  0  0  0  0  0  0  0  0  0
    4.6072   44.5728   36.3823 H   0  0  0  0  0  0  0  0  0  0  0  0
    2.1238   45.3003   32.1475 H   0  0  0  0  0  0  0  0  0  0  0  0
    2.5894   45.9993   36.3592 H   0  0  0  0  0  0  0  0  0  0  0  0
    1.3450   46.3652   34.2463 H   0  0  0  0  0  0  0  0  0  0  0  0
    9.8262   40.7192   31.7585 H   0  0  0  0  0  0  0  0  0  0  0  0
   11.3838   41.5524   31.4752 H   0  0  0  0  0  0  0  0  0  0  0  0
   11.7319   39.5336   30.3516 H   0  0  0  0  0  0  0  0  0  0  0  0
   10.1216   38.2683   32.6412 H   0  0  0  0  0  0  0  0  0  0  0  0
   13.6882   37.4702   31.2318 H   0  0  0  0  0  0  0  0  0  0  0  0
   10.0255   38.1750   29.7656 H   0  0  0  0  0  0  0  0  0  0  0  0
   11.2794   36.3123   32.4915 H   0  0  0  0  0  0  0  0  0  0  0  0
   11.9870   36.9098   29.7714 H   0  0  0  0  0  0  0  0  0  0  0  0
   12.3364   38.3595   34.7452 H   0  0  0  0  0  0  0  0  0  0  0  0
   16.7577   34.1794   32.4623 H   0  0  0  0  0  0  0  0  0  0  0  0
   15.3532   35.7351   37.5144 H   0  0  0  0  0  0  0  0  0  0  0  0
   16.6368   34.5316   37.1418 H   0  0  0  0  0  0  0  0  0  0  0  0
  1  2  2  0
  1  3  1  0
  3  4  1  0
  4  5  1  0
  6  1  1  0
  7  6  1  0
  6  8  1  0
  8  9  1  0
  9 10  1  0
  9 11  2  0
 10 12  1  0
 12 13  1  0
 13 14  2  0
 15 13  1  0
 14 16  1  0
 17 15  2  0
 16 18  2  0
 18 17  1  0
  4 19  2  0
  4 20  1  0
 21 20  1  0
 21 22  1  0
 22 23  1  0
 22 24  1  0
 23 25  1  0
 24 26  1  0
 24 27  1  0
 27 25  1  0
 25 28  1  0
 27 29  1  0
 30 28  1  0
 31 28  1  0
 32 30  2  0
 30 33  1  0
 34 31  2  0
 35 32  1  0
 33 36  2  0
 33 34  1  0
 37 35  2  0
 37 36  1  0
 36 38  1  0
  6 39  1  6
  7 40  1  0
  7 41  1  0
  8 42  1  0
  8 43  1  0
 12 44  1  0
 12 45  1  0
 14 46  1  0
 15 47  1  0
 16 48  1  0
 17 49  1  0
 18 50  1  0
 21 51  1  0
 21 52  1  0
 22 53  1  0
 24 54  1  0
 25 55  1  0
 26 56  1  0
 27 57  1  0
 29 58  1  0
 31 59  1  0
 35 60  1  0
 38 61  1  0
 38 62  1  0
M  CHG  1   5  -1
M  END
>  <EmbedRMS>  (258) 
0.08751737002732025

$$$$

     RDKit          3D

 62 65  0  0  0  0  0  0  0  0999 V2000
   10.2865   43.7708   33.8024 C   0  0  0  0  0  0  0  0  0  0  0  0
   11.4092   43.5868   34.3586 O   0  0  0  0  0  0  0  0  0  0  0  0
    9.3667   42.7309   33.6991 O   0  0  0  0  0  0  0  0  0  0  0  0
    9.8848   41.2345   34.2848 P   0  0  0  0  0  5  0  0  0  0  0  0
   10.3655   41.4711   35.8751 O   0  0  0  0  0  1  0  0  0  0  0  0
    9.9536   45.1151   33.2534 C   0  0  2  0  0  0  0  0  0  0  0  0
   11.0706   46.0345   33.4794 N   0  0  0  0  0  0  0  0  0  0  0  0
    8.6534   45.6667   33.8815 C   0  0  0  0  0  0  0  0  0  0  0  0
    8.6770   45.7246   35.3851 C   0  0  0  0  0  0  0  0  0  0  0  0
    9.8926   45.8179   36.0691 O   0  0  0  0  0  0  0  0  0  0  0  0
    7.5872   45.7186   36.0197 O   0  0  0  0  0  0  0  0  0  0  0  0
    9.9852   45.8020   37.4880 C   0  0  0  0  0  0  0  0  0  0  0  0
   11.4324   45.7751   37.8810 C   0  0  0  0  0  0  0  0  0  0  0  0
   12.1492   44.5681   37.8357 C   0  0  0  0  0  0  0  0  0  0  0  0
   12.1008   46.9616   38.2252 C   0  0  0  0  0  0  0  0  0  0  0  0
   13.5097   44.5449   38.1576 C   0  0  0  0  0  0  0  0  0  0  0  0
   13.4615   46.9339   38.5474 C   0  0  0  0  0  0  0  0  0  0  0  0
   14.1649   45.7264   38.5158 C   0  0  0  0  0  0  0  0  0  0  0  0
    8.8076   40.1913   34.2093 O   0  0  0  0  0  0  0  0  0  0  0  0
   11.2367   40.7903   33.3694 O   0  0  0  0  0  0  0  0  0  0  0  0
   10.9155   40.6898   31.9963 C   0  0  0  0  0  0  0  0  0  0  0  0
   11.5269   39.3899   31.4375 C   0  0  0  0  0  0  0  0  0  0  0  0
   12.7507   39.0917   32.0839 O   0  0  0  0  0  0  0  0  0  0  0  0
   10.6122   38.1916   31.6452 C   0  0  0  0  0  0  0  0  0  0  0  0
   12.9429   37.6853   32.0295 C   0  0  0  0  0  0  0  0  0  0  0  0
    9.6070   38.0859   30.6603 O   0  0  0  0  0  0  0  0  0  0  0  0
   11.5845   37.0186   31.6880 C   0  0  0  0  0  0  0  0  0  0  0  0
   13.4899   37.2164   33.3250 N   0  0  0  0  0  0  0  0  0  0  0  0
   11.6201   36.3063   30.4693 O   0  0  0  0  0  0  0  0  0  0  0  0
   14.4758   36.3263   33.5739 C   0  0  0  0  0  0  0  0  0  0  0  0
   13.1176   37.6308   34.5699 C   0  0  0  0  0  0  0  0  0  0  0  0
   15.2065   35.6139   32.6746 N   0  0  0  0  0  0  0  0  0  0  0  0
   14.6731   36.2268   34.9191 C   0  0  0  0  0  0  0  0  0  0  0  0
   13.8225   37.0451   35.5792 N   0  0  0  0  0  0  0  0  0  0  0  0
   16.1640   34.7596   33.1551 C   0  0  0  0  0  0  0  0  0  0  0  0
   15.6517   35.3489   35.4136 C   0  0  0  0  0  0  0  0  0  0  0  0
   16.3795   34.6310   34.5046 N   0  0  0  0  0  0  0  0  0  0  0  0
   15.9006   35.1931   36.8094 N   0  0  0  0  0  0  0  0  0  0  0  0
    9.7899   45.0079   32.1574 H   0  0  0  0  0  0  0  0  0  0  0  0
   10.8129   46.9714   33.0921 H   0  0  0  0  0  0  0  0  0  0  0  0
   11.8861   45.7111   32.9084 H   0  0  0  0  0  0  0  0  0  0  0  0
    7.8021   45.0266   33.5611 H   0  0  0  0  0  0  0  0  0  0  0  0
    8.4559   46.6877   33.4906 H   0  0  0  0  0  0  0  0  0  0  0  0
    9.4792   46.6994   37.9063 H   0  0  0  0  0  0  0  0  0  0  0  0
    9.4742   44.8987   37.8881 H   0  0  0  0  0  0  0  0  0  0  0  0
   11.6552   43.6480   37.5483 H   0  0  0  0  0  0  0  0  0  0  0  0
   11.5709   47.9059   38.2425 H   0  0  0  0  0  0  0  0  0  0  0  0
   14.0571   43.6117   38.1251 H   0  0  0  0  0  0  0  0  0  0  0  0
   13.9719   47.8495   38.8172 H   0  0  0  0  0  0  0  0  0  0  0  0
   15.2183   45.7072   38.7633 H   0  0  0  0  0  0  0  0  0  0  0  0
   11.3826   41.5527   31.4751 H   0  0  0  0  0  0  0  0  0  0  0  0
    9.8254   40.7191   31.7590 H   0  0  0  0  0  0  0  0  0  0  0  0
   11.7318   39.5340   30.3522 H   0  0  0  0  0  0  0  0  0  0  0  0
   10.1214   38.2682   32.6413 H   0  0  0  0  0  0  0  0  0  0  0  0
   13.6882   37.4708   31.2319 H   0  0  0  0  0  0  0  0  0  0  0  0
   10.0257   38.1752   29.7656 H   0  0  0  0  0  0  0  0  0  0  0  0
   11.2796   36.3124   32.4916 H   0  0  0  0  0  0  0  0  0  0  0  0
   11.9872   36.9100   29.7715 H   0  0  0  0  0  0  0  0  0  0  0  0
   12.3366   38.3597   34.7454 H   0  0  0  0  0  0  0  0  0  0  0  0
   16.7576   34.1795   32.4622 H   0  0  0  0  0  0  0  0  0  0  0  0
   15.3532   35.7352   37.5143 H   0  0  0  0  0  0  0  0  0  0  0  0
   16.6368   34.5316   37.1418 H   0  0  0  0  0  0  0  0  0  0  0  0
  1  2  2  0
  1  3  1  0
  3  4  1  0
  4  5  1  0
  6  1  1  0
  7  6  1  0
  6  8  1  0
  8  9  1  0
  9 10  1  0
  9 11  2  0
 10 12  1  0
 12 13  1  0
 13 14  2  0
 15 13  1  0
 14 16  1  0
 17 15  2  0
 16 18  2  0
 18 17  1  0
  4 19  2  0
  4 20  1  0
 21 20  1  0
 21 22  1  0
 22 23  1  0
 22 24  1  0
 23 25  1  0
 24 26  1  0
 24 27  1  0
 27 25  1  0
 25 28  1  0
 27 29  1  0
 30 28  1  0
 31 28  1  0
 32 30  2  0
 30 33  1  0
 34 31  2  0
 35 32  1  0
 33 36  2  0
 33 34  1  0
 37 35  2  0
 37 36  1  0
 36 38  1  0
  6 39  1  6
  7 40  1  0
  7 41  1  0
  8 42  1  0
  8 43  1  0
 12 44  1  0
 12 45  1  0
 14 46  1  0
 15 47  1  0
 16 48  1  0
 17 49  1  0
 18 50  1  0
 21 51  1  0
 21 52  1  0
 22 53  1  0
 24 54  1  0
 25 55  1  0
 26 56  1  0
 27 57  1  0
 29 58  1  0
 31 59  1  0
 35 60  1  0
 38 61  1  0
 38 62  1  0
M  CHG  1   5  -1
M  END
>  <EmbedRMS>  (259) 
0.08690729498857937

$$$$

     RDKit          3D

 62 65  0  0  0  0  0  0  0  0999 V2000
   10.2860   43.7720   33.8037 C   0  0  0  0  0  0  0  0  0  0  0  0
   11.4106   43.5876   34.3555 O   0  0  0  0  0  0  0  0  0  0  0  0
    9.3664   42.7314   33.7012 O   0  0  0  0  0  0  0  0  0  0  0  0
    9.8845   41.2345   34.2855 P   0  0  0  0  0  5  0  0  0  0  0  0
   10.3684   41.4692   35.8742 O   0  0  0  0  0  1  0  0  0  0  0  0
    9.9608   45.1098   33.2379 C   0  0  2  0  0  0  0  0  0  0  0  0
   11.0641   46.0385   33.4926 N   0  0  0  0  0  0  0  0  0  0  0  0
    8.6142   45.6557   33.7657 C   0  0  0  0  0  0  0  0  0  0  0  0
    8.5738   45.7779   35.2610 C   0  0  0  0  0  0  0  0  0  0  0  0
    8.4807   44.6213   36.0393 O   0  0  0  0  0  0  0  0  0  0  0  0
    8.6408   46.9151   35.8024 O   0  0  0  0  0  0  0  0  0  0  0  0
    8.4179   44.6446   37.4603 C   0  0  0  0  0  0  0  0  0  0  0  0
    8.4253   43.2345   37.9753 C   0  0  0  0  0  0  0  0  0  0  0  0
    7.3730   42.3640   37.6466 C   0  0  0  0  0  0  0  0  0  0  0  0
    9.4917   42.7611   38.7587 C   0  0  0  0  0  0  0  0  0  0  0  0
    7.3883   41.0395   38.0944 C   0  0  0  0  0  0  0  0  0  0  0  0
    9.5015   41.4363   39.2067 C   0  0  0  0  0  0  0  0  0  0  0  0
    8.4515   40.5760   38.8740 C   0  0  0  0  0  0  0  0  0  0  0  0
    8.8069   40.1917   34.2111 O   0  0  0  0  0  0  0  0  0  0  0  0
   11.2359   40.7902   33.3692 O   0  0  0  0  0  0  0  0  0  0  0  0
   10.9145   40.6896   31.9963 C   0  0  0  0  0  0  0  0  0  0  0  0
   11.5266   39.3899   31.4376 C   0  0  0  0  0  0  0  0  0  0  0  0
   12.7504   39.0918   32.0840 O   0  0  0  0  0  0  0  0  0  0  0  0
   10.6120   38.1915   31.6452 C   0  0  0  0  0  0  0  0  0  0  0  0
   12.9428   37.6854   32.0296 C   0  0  0  0  0  0  0  0  0  0  0  0
    9.6069   38.0857   30.6603 O   0  0  0  0  0  0  0  0  0  0  0  0
   11.5844   37.0186   31.6880 C   0  0  0  0  0  0  0  0  0  0  0  0
   13.4898   37.2164   33.3250 N   0  0  0  0  0  0  0  0  0  0  0  0
   11.6202   36.3063   30.4693 O   0  0  0  0  0  0  0  0  0  0  0  0
   14.4758   36.3264   33.5739 C   0  0  0  0  0  0  0  0  0  0  0  0
   13.1175   37.6308   34.5700 C   0  0  0  0  0  0  0  0  0  0  0  0
   15.2064   35.6140   32.6746 N   0  0  0  0  0  0  0  0  0  0  0  0
   14.6731   36.2268   34.9191 C   0  0  0  0  0  0  0  0  0  0  0  0
   13.8224   37.0450   35.5793 N   0  0  0  0  0  0  0  0  0  0  0  0
   16.1639   34.7596   33.1551 C   0  0  0  0  0  0  0  0  0  0  0  0
   15.6517   35.3489   35.4136 C   0  0  0  0  0  0  0  0  0  0  0  0
   16.3795   34.6310   34.5046 N   0  0  0  0  0  0  0  0  0  0  0  0
   15.9005   35.1931   36.8094 N   0  0  0  0  0  0  0  0  0  0  0  0
    9.8655   44.9822   32.1372 H   0  0  0  0  0  0  0  0  0  0  0  0
   10.8641   46.9385   32.9984 H   0  0  0  0  0  0  0  0  0  0  0  0
   11.1228   46.2524   34.5151 H   0  0  0  0  0  0  0  0  0  0  0  0
    7.7924   44.9793   33.4454 H   0  0  0  0  0  0  0  0  0  0  0  0
    8.4133   46.6472   33.3041 H   0  0  0  0  0  0  0  0  0  0  0  0
    7.4827   45.1505   37.7840 H   0  0  0  0  0  0  0  0  0  0  0  0
    9.2830   45.2168   37.8619 H   0  0  0  0  0  0  0  0  0  0  0  0
    6.5468   42.7101   37.0377 H   0  0  0  0  0  0  0  0  0  0  0  0
   10.3173   43.4124   39.0173 H   0  0  0  0  0  0  0  0  0  0  0  0
    6.5769   40.3718   37.8350 H   0  0  0  0  0  0  0  0  0  0  0  0
   10.3257   41.0752   39.8082 H   0  0  0  0  0  0  0  0  0  0  0  0
    8.4625   39.5501   39.2188 H   0  0  0  0  0  0  0  0  0  0  0  0
   11.3810   41.5528   31.4750 H   0  0  0  0  0  0  0  0  0  0  0  0
    9.8243   40.7184   31.7595 H   0  0  0  0  0  0  0  0  0  0  0  0
   11.7314   39.5341   30.3522 H   0  0  0  0  0  0  0  0  0  0  0  0
   10.1212   38.2680   32.6413 H   0  0  0  0  0  0  0  0  0  0  0  0
   13.6881   37.4711   31.2320 H   0  0  0  0  0  0  0  0  0  0  0  0
   10.0256   38.1750   29.7656 H   0  0  0  0  0  0  0  0  0  0  0  0
   11.2796   36.3123   32.4916 H   0  0  0  0  0  0  0  0  0  0  0  0
   11.9872   36.9100   29.7715 H   0  0  0  0  0  0  0  0  0  0  0  0
   12.3364   38.3596   34.7455 H   0  0  0  0  0  0  0  0  0  0  0  0
   16.7576   34.1795   32.4622 H   0  0  0  0  0  0  0  0  0  0  0  0
   16.6368   34.5316   37.1418 H   0  0  0  0  0  0  0  0  0  0  0  0
   15.3532   35.7351   37.5144 H   0  0  0  0  0  0  0  0  0  0  0  0
  1  2  2  0
  1  3  1  0
  3  4  1  0
  4  5  1  0
  6  1  1  0
  7  6  1  0
  6  8  1  0
  8  9  1  0
  9 10  1  0
  9 11  2  0
 10 12  1  0
 12 13  1  0
 13 14  2  0
 15 13  1  0
 14 16  1  0
 17 15  2  0
 16 18  2  0
 18 17  1  0
  4 19  2  0
  4 20  1  0
 21 20  1  0
 21 22  1  0
 22 23  1  0
 22 24  1  0
 23 25  1  0
 24 26  1  0
 24 27  1  0
 27 25  1  0
 25 28  1  0
 27 29  1  0
 30 28  1  0
 31 28  1  0
 32 30  2  0
 30 33  1  0
 34 31  2  0
 35 32  1  0
 33 36  2  0
 33 34  1  0
 37 35  2  0
 37 36  1  0
 36 38  1  0
  6 39  1  6
  7 40  1  0
  7 41  1  0
  8 42  1  0
  8 43  1  0
 12 44  1  0
 12 45  1  0
 14 46  1  0
 15 47  1  0
 16 48  1  0
 17 49  1  0
 18 50  1  0
 21 51  1  0
 21 52  1  0
 22 53  1  0
 24 54  1  0
 25 55  1  0
 26 56  1  0
 27 57  1  0
 29 58  1  0
 31 59  1  0
 35 60  1  0
 38 61  1  0
 38 62  1  0
M  CHG  1   5  -1
M  END
>  <EmbedRMS>  (260) 
0.08683945011268064

$$$$

     RDKit          3D

 62 65  0  0  0  0  0  0  0  0999 V2000
   10.2872   43.7711   33.8023 C   0  0  0  0  0  0  0  0  0  0  0  0
   11.4094   43.5878   34.3594 O   0  0  0  0  0  0  0  0  0  0  0  0
    9.3682   42.7304   33.6978 O   0  0  0  0  0  0  0  0  0  0  0  0
    9.8856   41.2340   34.2838 P   0  0  0  0  0  5  0  0  0  0  0  0
   10.3650   41.4709   35.8745 O   0  0  0  0  0  1  0  0  0  0  0  0
    9.9520   45.1154   33.2556 C   0  0  2  0  0  0  0  0  0  0  0  0
   11.0707   46.0335   33.4777 N   0  0  0  0  0  0  0  0  0  0  0  0
    8.6623   45.6647   33.8989 C   0  0  0  0  0  0  0  0  0  0  0  0
    8.7965   45.8399   35.3826 C   0  0  0  0  0  0  0  0  0  0  0  0
    8.5635   44.7476   36.2259 O   0  0  0  0  0  0  0  0  0  0  0  0
    9.1581   46.9531   35.8526 O   0  0  0  0  0  0  0  0  0  0  0  0
    8.6790   44.8141   37.6450 C   0  0  0  0  0  0  0  0  0  0  0  0
    7.5326   45.5936   38.2283 C   0  0  0  0  0  0  0  0  0  0  0  0
    7.7455   46.8543   38.8108 C   0  0  0  0  0  0  0  0  0  0  0  0
    6.2295   45.0735   38.1680 C   0  0  0  0  0  0  0  0  0  0  0  0
    6.6692   47.5787   39.3328 C   0  0  0  0  0  0  0  0  0  0  0  0
    5.1560   45.8011   38.6914 C   0  0  0  0  0  0  0  0  0  0  0  0
    5.3757   47.0524   39.2740 C   0  0  0  0  0  0  0  0  0  0  0  0
    8.8080   40.1913   34.2081 O   0  0  0  0  0  0  0  0  0  0  0  0
   11.2382   40.7894   33.3689 O   0  0  0  0  0  0  0  0  0  0  0  0
   10.9190   40.6886   31.9951 C   0  0  0  0  0  0  0  0  0  0  0  0
   11.5181   39.3800   31.4398 C   0  0  0  0  0  0  0  0  0  0  0  0
   12.7485   39.0875   32.0749 O   0  0  0  0  0  0  0  0  0  0  0  0
   10.6054   38.1875   31.6656 C   0  0  0  0  0  0  0  0  0  0  0  0
   12.9361   37.6815   32.0288 C   0  0  0  0  0  0  0  0  0  0  0  0
    9.6423   38.0738   30.6445 O   0  0  0  0  0  0  0  0  0  0  0  0
   11.5765   37.0158   31.7046 C   0  0  0  0  0  0  0  0  0  0  0  0
   13.4908   37.2182   33.3237 N   0  0  0  0  0  0  0  0  0  0  0  0
   11.6102   36.3399   30.4680 O   0  0  0  0  0  0  0  0  0  0  0  0
   14.4762   36.3273   33.5728 C   0  0  0  0  0  0  0  0  0  0  0  0
   13.1181   37.6318   34.5689 C   0  0  0  0  0  0  0  0  0  0  0  0
   15.2063   35.6141   32.6739 N   0  0  0  0  0  0  0  0  0  0  0  0
   14.6733   36.2275   34.9182 C   0  0  0  0  0  0  0  0  0  0  0  0
   13.8226   37.0457   35.5783 N   0  0  0  0  0  0  0  0  0  0  0  0
   16.1636   34.7595   33.1546 C   0  0  0  0  0  0  0  0  0  0  0  0
   15.6515   35.3492   35.4130 C   0  0  0  0  0  0  0  0  0  0  0  0
   16.3791   34.6310   34.5041 N   0  0  0  0  0  0  0  0  0  0  0  0
   15.9002   35.1933   36.8089 N   0  0  0  0  0  0  0  0  0  0  0  0
    9.7778   45.0093   32.1612 H   0  0  0  0  0  0  0  0  0  0  0  0
   11.8805   45.7138   32.8967 H   0  0  0  0  0  0  0  0  0  0  0  0
   10.8083   46.9725   33.0984 H   0  0  0  0  0  0  0  0  0  0  0  0
    8.4027   46.6405   33.4335 H   0  0  0  0  0  0  0  0  0  0  0  0
    7.8162   44.9741   33.6913 H   0  0  0  0  0  0  0  0  0  0  0  0
    9.6607   45.2552   37.9254 H   0  0  0  0  0  0  0  0  0  0  0  0
    8.6554   43.7807   38.0510 H   0  0  0  0  0  0  0  0  0  0  0  0
    8.7413   47.2771   38.8590 H   0  0  0  0  0  0  0  0  0  0  0  0
    6.0468   44.1070   37.7146 H   0  0  0  0  0  0  0  0  0  0  0  0
    6.8377   48.5492   39.7815 H   0  0  0  0  0  0  0  0  0  0  0  0
    4.1537   45.3956   38.6436 H   0  0  0  0  0  0  0  0  0  0  0  0
    4.5438   47.6147   39.6779 H   0  0  0  0  0  0  0  0  0  0  0  0
    9.8310   40.7374   31.7552 H   0  0  0  0  0  0  0  0  0  0  0  0
   11.3996   41.5435   31.4731 H   0  0  0  0  0  0  0  0  0  0  0  0
   11.7002   39.5047   30.3474 H   0  0  0  0  0  0  0  0  0  0  0  0
   10.1104   38.2618   32.6637 H   0  0  0  0  0  0  0  0  0  0  0  0
   13.6696   37.4585   31.2222 H   0  0  0  0  0  0  0  0  0  0  0  0
    8.9001   38.6883   30.8813 H   0  0  0  0  0  0  0  0  0  0  0  0
   11.2690   36.3069   32.5091 H   0  0  0  0  0  0  0  0  0  0  0  0
   12.1426   35.5151   30.6153 H   0  0  0  0  0  0  0  0  0  0  0  0
   12.3359   38.3593   34.7445 H   0  0  0  0  0  0  0  0  0  0  0  0
   16.7569   34.1789   32.4618 H   0  0  0  0  0  0  0  0  0  0  0  0
   16.6362   34.5315   37.1414 H   0  0  0  0  0  0  0  0  0  0  0  0
   15.3530   35.7356   37.5138 H   0  0  0  0  0  0  0  0  0  0  0  0
  1  2  2  0
  1  3  1  0
  3  4  1  0
  4  5  1  0
  6  1  1  0
  7  6  1  0
  6  8  1  0
  8  9  1  0
  9 10  1  0
  9 11  2  0
 10 12  1  0
 12 13  1  0
 13 14  2  0
 15 13  1  0
 14 16  1  0
 17 15  2  0
 16 18  2  0
 18 17  1  0
  4 19  2  0
  4 20  1  0
 21 20  1  0
 21 22  1  0
 22 23  1  0
 22 24  1  0
 23 25  1  0
 24 26  1  0
 24 27  1  0
 27 25  1  0
 25 28  1  0
 27 29  1  0
 30 28  1  0
 31 28  1  0
 32 30  2  0
 30 33  1  0
 34 31  2  0
 35 32  1  0
 33 36  2  0
 33 34  1  0
 37 35  2  0
 37 36  1  0
 36 38  1  0
  6 39  1  6
  7 40  1  0
  7 41  1  0
  8 42  1  0
  8 43  1  0
 12 44  1  0
 12 45  1  0
 14 46  1  0
 15 47  1  0
 16 48  1  0
 17 49  1  0
 18 50  1  0
 21 51  1  0
 21 52  1  0
 22 53  1  0
 24 54  1  0
 25 55  1  0
 26 56  1  0
 27 57  1  0
 29 58  1  0
 31 59  1  0
 35 60  1  0
 38 61  1  0
 38 62  1  0
M  CHG  1   5  -1
M  END
>  <EmbedRMS>  (261) 
0.08934787280375

$$$$

     RDKit          3D

 62 65  0  0  0  0  0  0  0  0999 V2000
   10.2865   43.7710   33.8017 C   0  0  0  0  0  0  0  0  0  0  0  0
   11.4091   43.5868   34.3579 O   0  0  0  0  0  0  0  0  0  0  0  0
    9.3669   42.7309   33.6986 O   0  0  0  0  0  0  0  0  0  0  0  0
    9.8849   41.2346   34.2847 P   0  0  0  0  0  5  0  0  0  0  0  0
   10.3654   41.4710   35.8749 O   0  0  0  0  0  1  0  0  0  0  0  0
    9.9516   45.1164   33.2556 C   0  0  2  0  0  0  0  0  0  0  0  0
   11.0720   46.0323   33.4788 N   0  0  0  0  0  0  0  0  0  0  0  0
    8.6616   45.6676   33.8998 C   0  0  0  0  0  0  0  0  0  0  0  0
    8.7699   45.7518   35.3933 C   0  0  0  0  0  0  0  0  0  0  0  0
    9.5771   46.7374   35.9708 O   0  0  0  0  0  0  0  0  0  0  0  0
    8.1786   44.9008   36.1126 O   0  0  0  0  0  0  0  0  0  0  0  0
    9.9952   46.6979   37.3326 C   0  0  0  0  0  0  0  0  0  0  0  0
   10.9835   45.5810   37.5325 C   0  0  0  0  0  0  0  0  0  0  0  0
   10.6221   44.4219   38.2394 C   0  0  0  0  0  0  0  0  0  0  0  0
   12.2600   45.6645   36.9530 C   0  0  0  0  0  0  0  0  0  0  0  0
   11.5312   43.3678   38.3736 C   0  0  0  0  0  0  0  0  0  0  0  0
   13.1656   44.6077   37.0886 C   0  0  0  0  0  0  0  0  0  0  0  0
   12.8014   43.4601   37.7982 C   0  0  0  0  0  0  0  0  0  0  0  0
    8.8077   40.1914   34.2093 O   0  0  0  0  0  0  0  0  0  0  0  0
   11.2368   40.7903   33.3694 O   0  0  0  0  0  0  0  0  0  0  0  0
   10.9156   40.6898   31.9963 C   0  0  0  0  0  0  0  0  0  0  0  0
   11.5270   39.3899   31.4376 C   0  0  0  0  0  0  0  0  0  0  0  0
   12.7508   39.0917   32.0839 O   0  0  0  0  0  0  0  0  0  0  0  0
   10.6122   38.1916   31.6453 C   0  0  0  0  0  0  0  0  0  0  0  0
   12.9429   37.6853   32.0296 C   0  0  0  0  0  0  0  0  0  0  0  0
    9.6070   38.0859   30.6603 O   0  0  0  0  0  0  0  0  0  0  0  0
   11.5845   37.0187   31.6880 C   0  0  0  0  0  0  0  0  0  0  0  0
   13.4899   37.2164   33.3250 N   0  0  0  0  0  0  0  0  0  0  0  0
   11.6201   36.3063   30.4693 O   0  0  0  0  0  0  0  0  0  0  0  0
   14.4758   36.3264   33.5739 C   0  0  0  0  0  0  0  0  0  0  0  0
   13.1176   37.6309   34.5700 C   0  0  0  0  0  0  0  0  0  0  0  0
   15.2065   35.6139   32.6746 N   0  0  0  0  0  0  0  0  0  0  0  0
   14.6731   36.2268   34.9191 C   0  0  0  0  0  0  0  0  0  0  0  0
   13.8225   37.0451   35.5793 N   0  0  0  0  0  0  0  0  0  0  0  0
   16.1640   34.7596   33.1551 C   0  0  0  0  0  0  0  0  0  0  0  0
   15.6517   35.3489   35.4136 C   0  0  0  0  0  0  0  0  0  0  0  0
   16.3795   34.6310   34.5046 N   0  0  0  0  0  0  0  0  0  0  0  0
   15.9006   35.1931   36.8094 N   0  0  0  0  0  0  0  0  0  0  0  0
    9.7782   45.0128   32.1609 H   0  0  0  0  0  0  0  0  0  0  0  0
   10.8145   46.9709   33.0955 H   0  0  0  0  0  0  0  0  0  0  0  0
   11.8840   45.7085   32.9031 H   0  0  0  0  0  0  0  0  0  0  0  0
    7.8020   45.0180   33.6232 H   0  0  0  0  0  0  0  0  0  0  0  0
    8.4453   46.6803   33.4970 H   0  0  0  0  0  0  0  0  0  0  0  0
    9.1123   46.5891   38.0000 H   0  0  0  0  0  0  0  0  0  0  0  0
   10.4831   47.6633   37.5836 H   0  0  0  0  0  0  0  0  0  0  0  0
    9.6369   44.3305   38.6792 H   0  0  0  0  0  0  0  0  0  0  0  0
   12.5482   46.5430   36.3888 H   0  0  0  0  0  0  0  0  0  0  0  0
   11.2482   42.4760   38.9177 H   0  0  0  0  0  0  0  0  0  0  0  0
   14.1472   44.6758   36.6379 H   0  0  0  0  0  0  0  0  0  0  0  0
   13.5018   42.6411   37.8988 H   0  0  0  0  0  0  0  0  0  0  0  0
    9.8255   40.7192   31.7590 H   0  0  0  0  0  0  0  0  0  0  0  0
   11.3827   41.5528   31.4752 H   0  0  0  0  0  0  0  0  0  0  0  0
   11.7318   39.5341   30.3522 H   0  0  0  0  0  0  0  0  0  0  0  0
   10.1214   38.2682   32.6413 H   0  0  0  0  0  0  0  0  0  0  0  0
   13.6882   37.4709   31.2320 H   0  0  0  0  0  0  0  0  0  0  0  0
   10.0257   38.1753   29.7657 H   0  0  0  0  0  0  0  0  0  0  0  0
   11.2796   36.3124   32.4916 H   0  0  0  0  0  0  0  0  0  0  0  0
   11.9872   36.9100   29.7715 H   0  0  0  0  0  0  0  0  0  0  0  0
   12.3367   38.3599   34.7454 H   0  0  0  0  0  0  0  0  0  0  0  0
   16.7576   34.1794   32.4622 H   0  0  0  0  0  0  0  0  0  0  0  0
   16.6368   34.5316   37.1418 H   0  0  0  0  0  0  0  0  0  0  0  0
   15.3532   35.7352   37.5144 H   0  0  0  0  0  0  0  0  0  0  0  0
  1  2  2  0
  1  3  1  0
  3  4  1  0
  4  5  1  0
  6  1  1  0
  7  6  1  0
  6  8  1  0
  8  9  1  0
  9 10  1  0
  9 11  2  0
 10 12  1  0
 12 13  1  0
 13 14  2  0
 15 13  1  0
 14 16  1  0
 17 15  2  0
 16 18  2  0
 18 17  1  0
  4 19  2  0
  4 20  1  0
 21 20  1  0
 21 22  1  0
 22 23  1  0
 22 24  1  0
 23 25  1  0
 24 26  1  0
 24 27  1  0
 27 25  1  0
 25 28  1  0
 27 29  1  0
 30 28  1  0
 31 28  1  0
 32 30  2  0
 30 33  1  0
 34 31  2  0
 35 32  1  0
 33 36  2  0
 33 34  1  0
 37 35  2  0
 37 36  1  0
 36 38  1  0
  6 39  1  6
  7 40  1  0
  7 41  1  0
  8 42  1  0
  8 43  1  0
 12 44  1  0
 12 45  1  0
 14 46  1  0
 15 47  1  0
 16 48  1  0
 17 49  1  0
 18 50  1  0
 21 51  1  0
 21 52  1  0
 22 53  1  0
 24 54  1  0
 25 55  1  0
 26 56  1  0
 27 57  1  0
 29 58  1  0
 31 59  1  0
 35 60  1  0
 38 61  1  0
 38 62  1  0
M  CHG  1   5  -1
M  END
>  <EmbedRMS>  (262) 
0.0868972239426549

$$$$

     RDKit          3D

 62 65  0  0  0  0  0  0  0  0999 V2000
   10.2861   43.7720   33.8047 C   0  0  0  0  0  0  0  0  0  0  0  0
   11.4086   43.5885   34.3611 O   0  0  0  0  0  0  0  0  0  0  0  0
    9.3676   42.7309   33.6993 O   0  0  0  0  0  0  0  0  0  0  0  0
    9.8854   41.2341   34.2843 P   0  0  0  0  0  5  0  0  0  0  0  0
   10.3651   41.4702   35.8750 O   0  0  0  0  0  1  0  0  0  0  0  0
    9.9530   45.1148   33.2535 C   0  0  2  0  0  0  0  0  0  0  0  0
   11.0712   46.0333   33.4765 N   0  0  0  0  0  0  0  0  0  0  0  0
    8.6604   45.6659   33.8889 C   0  0  0  0  0  0  0  0  0  0  0  0
    8.7942   45.8699   35.3689 C   0  0  0  0  0  0  0  0  0  0  0  0
    9.3447   47.0622   35.8520 O   0  0  0  0  0  0  0  0  0  0  0  0
    8.4462   44.9522   36.1613 O   0  0  0  0  0  0  0  0  0  0  0  0
    9.5088   47.3421   37.2404 C   0  0  0  0  0  0  0  0  0  0  0  0
    8.1747   47.6019   37.8852 C   0  0  0  0  0  0  0  0  0  0  0  0
    7.6355   46.6909   38.8090 C   0  0  0  0  0  0  0  0  0  0  0  0
    7.4435   48.7512   37.5438 C   0  0  0  0  0  0  0  0  0  0  0  0
    6.3857   46.9329   39.3879 C   0  0  0  0  0  0  0  0  0  0  0  0
    6.1943   48.9896   38.1252 C   0  0  0  0  0  0  0  0  0  0  0  0
    5.6660   48.0815   39.0470 C   0  0  0  0  0  0  0  0  0  0  0  0
    8.8081   40.1911   34.2081 O   0  0  0  0  0  0  0  0  0  0  0  0
   11.2382   40.7904   33.3697 O   0  0  0  0  0  0  0  0  0  0  0  0
   10.9190   40.6905   31.9962 C   0  0  0  0  0  0  0  0  0  0  0  0
   11.5176   39.3824   31.4412 C   0  0  0  0  0  0  0  0  0  0  0  0
   12.7495   39.0892   32.0755 O   0  0  0  0  0  0  0  0  0  0  0  0
   10.6036   38.1899   31.6659 C   0  0  0  0  0  0  0  0  0  0  0  0
   12.9401   37.6833   32.0276 C   0  0  0  0  0  0  0  0  0  0  0  0
    9.6377   38.0785   30.6474 O   0  0  0  0  0  0  0  0  0  0  0  0
   11.5803   37.0203   31.6937 C   0  0  0  0  0  0  0  0  0  0  0  0
   13.4902   37.2177   33.3237 N   0  0  0  0  0  0  0  0  0  0  0  0
   11.6117   36.3193   30.4680 O   0  0  0  0  0  0  0  0  0  0  0  0
   14.4759   36.3271   33.5731 C   0  0  0  0  0  0  0  0  0  0  0  0
   13.1176   37.6317   34.5688 C   0  0  0  0  0  0  0  0  0  0  0  0
   15.2064   35.6141   32.6742 N   0  0  0  0  0  0  0  0  0  0  0  0
   14.6729   36.2274   34.9184 C   0  0  0  0  0  0  0  0  0  0  0  0
   13.8221   37.0457   35.5783 N   0  0  0  0  0  0  0  0  0  0  0  0
   16.1637   34.7597   33.1549 C   0  0  0  0  0  0  0  0  0  0  0  0
   15.6514   35.3493   35.4133 C   0  0  0  0  0  0  0  0  0  0  0  0
   16.3791   34.6312   34.5044 N   0  0  0  0  0  0  0  0  0  0  0  0
   15.9001   35.1935   36.8091 N   0  0  0  0  0  0  0  0  0  0  0  0
    9.7833   45.0051   32.1587 H   0  0  0  0  0  0  0  0  0  0  0  0
   11.8826   45.7124   32.8983 H   0  0  0  0  0  0  0  0  0  0  0  0
   10.8100   46.9716   33.0947 H   0  0  0  0  0  0  0  0  0  0  0  0
    7.8145   44.9736   33.6834 H   0  0  0  0  0  0  0  0  0  0  0  0
    8.4024   46.6376   33.4152 H   0  0  0  0  0  0  0  0  0  0  0  0
   10.1425   48.2477   37.3471 H   0  0  0  0  0  0  0  0  0  0  0  0
   10.0471   46.5037   37.7347 H   0  0  0  0  0  0  0  0  0  0  0  0
    8.1792   45.7941   39.0790 H   0  0  0  0  0  0  0  0  0  0  0  0
    7.8409   49.4595   36.8272 H   0  0  0  0  0  0  0  0  0  0  0  0
    5.9742   46.2289   40.0997 H   0  0  0  0  0  0  0  0  0  0  0  0
    5.6349   49.8774   37.8597 H   0  0  0  0  0  0  0  0  0  0  0  0
    4.6986   48.2669   39.4956 H   0  0  0  0  0  0  0  0  0  0  0  0
   11.4000   41.5454   31.4747 H   0  0  0  0  0  0  0  0  0  0  0  0
    9.8311   40.7397   31.7560 H   0  0  0  0  0  0  0  0  0  0  0  0
   11.6990   39.5091   30.3489 H   0  0  0  0  0  0  0  0  0  0  0  0
   10.1131   38.2589   32.6664 H   0  0  0  0  0  0  0  0  0  0  0  0
   13.6800   37.4627   31.2265 H   0  0  0  0  0  0  0  0  0  0  0  0
    8.8953   38.6909   30.8891 H   0  0  0  0  0  0  0  0  0  0  0  0
   11.2830   36.3060   32.4929 H   0  0  0  0  0  0  0  0  0  0  0  0
   11.8859   36.9589   29.7593 H   0  0  0  0  0  0  0  0  0  0  0  0
   12.3360   38.3600   34.7441 H   0  0  0  0  0  0  0  0  0  0  0  0
   16.7572   34.1793   32.4621 H   0  0  0  0  0  0  0  0  0  0  0  0
   16.6362   34.5318   37.1416 H   0  0  0  0  0  0  0  0  0  0  0  0
   15.3528   35.7357   37.5140 H   0  0  0  0  0  0  0  0  0  0  0  0
  1  2  2  0
  1  3  1  0
  3  4  1  0
  4  5  1  0
  6  1  1  0
  7  6  1  0
  6  8  1  0
  8  9  1  0
  9 10  1  0
  9 11  2  0
 10 12  1  0
 12 13  1  0
 13 14  2  0
 15 13  1  0
 14 16  1  0
 17 15  2  0
 16 18  2  0
 18 17  1  0
  4 19  2  0
  4 20  1  0
 21 20  1  0
 21 22  1  0
 22 23  1  0
 22 24  1  0
 23 25  1  0
 24 26  1  0
 24 27  1  0
 27 25  1  0
 25 28  1  0
 27 29  1  0
 30 28  1  0
 31 28  1  0
 32 30  2  0
 30 33  1  0
 34 31  2  0
 35 32  1  0
 33 36  2  0
 33 34  1  0
 37 35  2  0
 37 36  1  0
 36 38  1  0
  6 39  1  6
  7 40  1  0
  7 41  1  0
  8 42  1  0
  8 43  1  0
 12 44  1  0
 12 45  1  0
 14 46  1  0
 15 47  1  0
 16 48  1  0
 17 49  1  0
 18 50  1  0
 21 51  1  0
 21 52  1  0
 22 53  1  0
 24 54  1  0
 25 55  1  0
 26 56  1  0
 27 57  1  0
 29 58  1  0
 31 59  1  0
 35 60  1  0
 38 61  1  0
 38 62  1  0
M  CHG  1   5  -1
M  END
>  <EmbedRMS>  (263) 
0.08833915195728877

$$$$

     RDKit          3D

 62 65  0  0  0  0  0  0  0  0999 V2000
   10.2828   43.7755   33.8077 C   0  0  0  0  0  0  0  0  0  0  0  0
   11.4085   43.5916   34.3578 O   0  0  0  0  0  0  0  0  0  0  0  0
    9.3666   42.7319   33.7016 O   0  0  0  0  0  0  0  0  0  0  0  0
    9.8861   41.2348   34.2846 P   0  0  0  0  0  5  0  0  0  0  0  0
   10.3662   41.4697   35.8751 O   0  0  0  0  0  1  0  0  0  0  0  0
    9.9535   45.1114   33.2432 C   0  0  2  0  0  0  0  0  0  0  0  0
   11.0727   46.0266   33.4848 N   0  0  0  0  0  0  0  0  0  0  0  0
    8.6389   45.6431   33.8529 C   0  0  0  0  0  0  0  0  0  0  0  0
    8.2410   46.9486   33.2390 C   0  0  0  0  0  0  0  0  0  0  0  0
    8.5335   48.1410   33.9103 O   0  0  0  0  0  0  0  0  0  0  0  0
    7.6822   46.9642   32.1084 O   0  0  0  0  0  0  0  0  0  0  0  0
    8.3365   49.4302   33.3349 C   0  0  0  0  0  0  0  0  0  0  0  0
    9.3722   49.6888   32.2753 C   0  0  0  0  0  0  0  0  0  0  0  0
    9.0187   49.7030   30.9157 C   0  0  0  0  0  0  0  0  0  0  0  0
   10.7156   49.8743   32.6401 C   0  0  0  0  0  0  0  0  0  0  0  0
    9.9960   49.9105   29.9371 C   0  0  0  0  0  0  0  0  0  0  0  0
   11.6898   50.0806   31.6585 C   0  0  0  0  0  0  0  0  0  0  0  0
   11.3302   50.0997   30.3081 C   0  0  0  0  0  0  0  0  0  0  0  0
    8.8089   40.1914   34.2082 O   0  0  0  0  0  0  0  0  0  0  0  0
   11.2386   40.7916   33.3693 O   0  0  0  0  0  0  0  0  0  0  0  0
   10.9187   40.6907   31.9960 C   0  0  0  0  0  0  0  0  0  0  0  0
   11.5175   39.3824   31.4412 C   0  0  0  0  0  0  0  0  0  0  0  0
   12.7494   39.0893   32.0757 O   0  0  0  0  0  0  0  0  0  0  0  0
   10.6036   38.1900   31.6660 C   0  0  0  0  0  0  0  0  0  0  0  0
   12.9401   37.6834   32.0276 C   0  0  0  0  0  0  0  0  0  0  0  0
    9.6376   38.0785   30.6474 O   0  0  0  0  0  0  0  0  0  0  0  0
   11.5803   37.0204   31.6937 C   0  0  0  0  0  0  0  0  0  0  0  0
   13.4902   37.2177   33.3237 N   0  0  0  0  0  0  0  0  0  0  0  0
   11.6118   36.3193   30.4680 O   0  0  0  0  0  0  0  0  0  0  0  0
   14.4759   36.3271   33.5731 C   0  0  0  0  0  0  0  0  0  0  0  0
   13.1176   37.6317   34.5688 C   0  0  0  0  0  0  0  0  0  0  0  0
   15.2064   35.6142   32.6742 N   0  0  0  0  0  0  0  0  0  0  0  0
   14.6729   36.2274   34.9184 C   0  0  0  0  0  0  0  0  0  0  0  0
   13.8221   37.0457   35.5783 N   0  0  0  0  0  0  0  0  0  0  0  0
   16.1637   34.7597   33.1549 C   0  0  0  0  0  0  0  0  0  0  0  0
   15.6514   35.3493   35.4133 C   0  0  0  0  0  0  0  0  0  0  0  0
   16.3791   34.6312   34.5043 N   0  0  0  0  0  0  0  0  0  0  0  0
   15.9001   35.1935   36.8091 N   0  0  0  0  0  0  0  0  0  0  0  0
    9.8213   44.9849   32.1454 H   0  0  0  0  0  0  0  0  0  0  0  0
   11.0669   46.3397   34.4835 H   0  0  0  0  0  0  0  0  0  0  0  0
   10.9524   46.8759   32.8868 H   0  0  0  0  0  0  0  0  0  0  0  0
    7.8198   44.9107   33.6809 H   0  0  0  0  0  0  0  0  0  0  0  0
    8.7499   45.7704   34.9520 H   0  0  0  0  0  0  0  0  0  0  0  0
    8.4385   50.1949   34.1338 H   0  0  0  0  0  0  0  0  0  0  0  0
    7.3043   49.5136   32.9292 H   0  0  0  0  0  0  0  0  0  0  0  0
    7.9904   49.5500   30.6129 H   0  0  0  0  0  0  0  0  0  0  0  0
   11.0073   49.8522   33.6829 H   0  0  0  0  0  0  0  0  0  0  0  0
    9.7194   49.9215   28.8908 H   0  0  0  0  0  0  0  0  0  0  0  0
   12.7239   50.2225   31.9446 H   0  0  0  0  0  0  0  0  0  0  0  0
   12.0855   50.2584   29.5493 H   0  0  0  0  0  0  0  0  0  0  0  0
   11.3992   41.5455   31.4737 H   0  0  0  0  0  0  0  0  0  0  0  0
    9.8307   40.7396   31.7563 H   0  0  0  0  0  0  0  0  0  0  0  0
   11.6989   39.5091   30.3490 H   0  0  0  0  0  0  0  0  0  0  0  0
   10.1130   38.2589   32.6664 H   0  0  0  0  0  0  0  0  0  0  0  0
   13.6800   37.4628   31.2265 H   0  0  0  0  0  0  0  0  0  0  0  0
    8.8952   38.6908   30.8891 H   0  0  0  0  0  0  0  0  0  0  0  0
   11.2830   36.3060   32.4929 H   0  0  0  0  0  0  0  0  0  0  0  0
   11.8859   36.9589   29.7593 H   0  0  0  0  0  0  0  0  0  0  0  0
   12.3360   38.3600   34.7441 H   0  0  0  0  0  0  0  0  0  0  0  0
   16.7572   34.1793   32.4621 H   0  0  0  0  0  0  0  0  0  0  0  0
   15.3528   35.7356   37.5140 H   0  0  0  0  0  0  0  0  0  0  0  0
   16.6362   34.5318   37.1416 H   0  0  0  0  0  0  0  0  0  0  0  0
  1  2  2  0
  1  3  1  0
  3  4  1  0
  4  5  1  0
  6  1  1  0
  7  6  1  0
  6  8  1  0
  8  9  1  0
  9 10  1  0
  9 11  2  0
 10 12  1  0
 12 13  1  0
 13 14  2  0
 15 13  1  0
 14 16  1  0
 17 15  2  0
 16 18  2  0
 18 17  1  0
  4 19  2  0
  4 20  1  0
 21 20  1  0
 21 22  1  0
 22 23  1  0
 22 24  1  0
 23 25  1  0
 24 26  1  0
 24 27  1  0
 27 25  1  0
 25 28  1  0
 27 29  1  0
 30 28  1  0
 31 28  1  0
 32 30  2  0
 30 33  1  0
 34 31  2  0
 35 32  1  0
 33 36  2  0
 33 34  1  0
 37 35  2  0
 37 36  1  0
 36 38  1  0
  6 39  1  6
  7 40  1  0
  7 41  1  0
  8 42  1  0
  8 43  1  0
 12 44  1  0
 12 45  1  0
 14 46  1  0
 15 47  1  0
 16 48  1  0
 17 49  1  0
 18 50  1  0
 21 51  1  0
 21 52  1  0
 22 53  1  0
 24 54  1  0
 25 55  1  0
 26 56  1  0
 27 57  1  0
 29 58  1  0
 31 59  1  0
 35 60  1  0
 38 61  1  0
 38 62  1  0
M  CHG  1   5  -1
M  END
>  <EmbedRMS>  (264) 
0.0880161870092922

$$$$

     RDKit          3D

 62 65  0  0  0  0  0  0  0  0999 V2000
   10.2808   43.7760   33.8098 C   0  0  0  0  0  0  0  0  0  0  0  0
   11.4068   43.5917   34.3592 O   0  0  0  0  0  0  0  0  0  0  0  0
    9.3682   42.7300   33.6998 O   0  0  0  0  0  0  0  0  0  0  0  0
    9.8866   41.2338   34.2841 P   0  0  0  0  0  5  0  0  0  0  0  0
   10.3669   41.4697   35.8745 O   0  0  0  0  0  1  0  0  0  0  0  0
    9.9522   45.1160   33.2455 C   0  0  2  0  0  0  0  0  0  0  0  0
   11.0748   46.0259   33.4811 N   0  0  0  0  0  0  0  0  0  0  0  0
    8.6546   45.6911   33.8555 C   0  0  0  0  0  0  0  0  0  0  0  0
    7.4405   44.9339   33.4099 C   0  0  0  0  0  0  0  0  0  0  0  0
    7.0711   44.9584   32.0603 O   0  0  0  0  0  0  0  0  0  0  0  0
    6.7727   44.2703   34.2494 O   0  0  0  0  0  0  0  0  0  0  0  0
    5.9386   44.2613   31.5463 C   0  0  0  0  0  0  0  0  0  0  0  0
    4.6651   44.9296   31.9873 C   0  0  0  0  0  0  0  0  0  0  0  0
    4.3448   46.2109   31.5101 C   0  0  0  0  0  0  0  0  0  0  0  0
    3.7998   44.2957   32.8948 C   0  0  0  0  0  0  0  0  0  0  0  0
    3.1713   46.8455   31.9294 C   0  0  0  0  0  0  0  0  0  0  0  0
    2.6274   44.9339   33.3117 C   0  0  0  0  0  0  0  0  0  0  0  0
    2.3130   46.2073   32.8290 C   0  0  0  0  0  0  0  0  0  0  0  0
    8.8086   40.1913   34.2086 O   0  0  0  0  0  0  0  0  0  0  0  0
   11.2378   40.7900   33.3677 O   0  0  0  0  0  0  0  0  0  0  0  0
   10.9153   40.6882   31.9948 C   0  0  0  0  0  0  0  0  0  0  0  0
   11.5260   39.3871   31.4364 C   0  0  0  0  0  0  0  0  0  0  0  0
   12.7491   39.0893   32.0818 O   0  0  0  0  0  0  0  0  0  0  0  0
   10.6122   38.1893   31.6461 C   0  0  0  0  0  0  0  0  0  0  0  0
   12.9373   37.6827   32.0301 C   0  0  0  0  0  0  0  0  0  0  0  0
    9.6149   38.0839   30.6538 O   0  0  0  0  0  0  0  0  0  0  0  0
   11.5792   37.0136   31.7014 C   0  0  0  0  0  0  0  0  0  0  0  0
   13.4906   37.2170   33.3242 N   0  0  0  0  0  0  0  0  0  0  0  0
   11.6216   36.3252   30.4725 O   0  0  0  0  0  0  0  0  0  0  0  0
   14.4763   36.3266   33.5731 C   0  0  0  0  0  0  0  0  0  0  0  0
   13.1181   37.6308   34.5694 C   0  0  0  0  0  0  0  0  0  0  0  0
   15.2065   35.6137   32.6740 N   0  0  0  0  0  0  0  0  0  0  0  0
   14.6735   36.2270   34.9185 C   0  0  0  0  0  0  0  0  0  0  0  0
   13.8229   37.0451   35.5787 N   0  0  0  0  0  0  0  0  0  0  0  0
   16.1639   34.7593   33.1547 C   0  0  0  0  0  0  0  0  0  0  0  0
   15.6518   35.3489   35.4132 C   0  0  0  0  0  0  0  0  0  0  0  0
   16.3794   34.6308   34.5042 N   0  0  0  0  0  0  0  0  0  0  0  0
   15.9006   35.1931   36.8090 N   0  0  0  0  0  0  0  0  0  0  0  0
    9.8228   45.0001   32.1462 H   0  0  0  0  0  0  0  0  0  0  0  0
   11.1119   46.2832   34.4954 H   0  0  0  0  0  0  0  0  0  0  0  0
   10.9083   46.9080   32.9440 H   0  0  0  0  0  0  0  0  0  0  0  0
    8.5312   46.7470   33.5319 H   0  0  0  0  0  0  0  0  0  0  0  0
    8.7210   45.6871   34.9663 H   0  0  0  0  0  0  0  0  0  0  0  0
    5.9867   44.2756   30.4370 H   0  0  0  0  0  0  0  0  0  0  0  0
    5.9743   43.1958   31.8636 H   0  0  0  0  0  0  0  0  0  0  0  0
    5.0047   46.7169   30.8161 H   0  0  0  0  0  0  0  0  0  0  0  0
    4.0326   43.3112   33.2811 H   0  0  0  0  0  0  0  0  0  0  0  0
    2.9283   47.8327   31.5581 H   0  0  0  0  0  0  0  0  0  0  0  0
    1.9632   44.4418   34.0105 H   0  0  0  0  0  0  0  0  0  0  0  0
    1.4054   46.7000   33.1532 H   0  0  0  0  0  0  0  0  0  0  0  0
   11.3822   41.5503   31.4723 H   0  0  0  0  0  0  0  0  0  0  0  0
    9.8250   40.7180   31.7584 H   0  0  0  0  0  0  0  0  0  0  0  0
   11.7290   39.5287   30.3503 H   0  0  0  0  0  0  0  0  0  0  0  0
   10.1139   38.2719   32.6379 H   0  0  0  0  0  0  0  0  0  0  0  0
   13.6725   37.4636   31.2240 H   0  0  0  0  0  0  0  0  0  0  0  0
   10.0534   38.1085   29.7638 H   0  0  0  0  0  0  0  0  0  0  0  0
   11.2645   36.3135   32.5107 H   0  0  0  0  0  0  0  0  0  0  0  0
   12.1548   35.5032   30.6315 H   0  0  0  0  0  0  0  0  0  0  0  0
   12.3361   38.3586   34.7450 H   0  0  0  0  0  0  0  0  0  0  0  0
   16.7573   34.1788   32.4619 H   0  0  0  0  0  0  0  0  0  0  0  0
   16.6366   34.5314   37.1415 H   0  0  0  0  0  0  0  0  0  0  0  0
   15.3533   35.7353   37.5139 H   0  0  0  0  0  0  0  0  0  0  0  0
  1  2  2  0
  1  3  1  0
  3  4  1  0
  4  5  1  0
  6  1  1  0
  7  6  1  0
  6  8  1  0
  8  9  1  0
  9 10  1  0
  9 11  2  0
 10 12  1  0
 12 13  1  0
 13 14  2  0
 15 13  1  0
 14 16  1  0
 17 15  2  0
 16 18  2  0
 18 17  1  0
  4 19  2  0
  4 20  1  0
 21 20  1  0
 21 22  1  0
 22 23  1  0
 22 24  1  0
 23 25  1  0
 24 26  1  0
 24 27  1  0
 27 25  1  0
 25 28  1  0
 27 29  1  0
 30 28  1  0
 31 28  1  0
 32 30  2  0
 30 33  1  0
 34 31  2  0
 35 32  1  0
 33 36  2  0
 33 34  1  0
 37 35  2  0
 37 36  1  0
 36 38  1  0
  6 39  1  6
  7 40  1  0
  7 41  1  0
  8 42  1  0
  8 43  1  0
 12 44  1  0
 12 45  1  0
 14 46  1  0
 15 47  1  0
 16 48  1  0
 17 49  1  0
 18 50  1  0
 21 51  1  0
 21 52  1  0
 22 53  1  0
 24 54  1  0
 25 55  1  0
 26 56  1  0
 27 57  1  0
 29 58  1  0
 31 59  1  0
 35 60  1  0
 38 61  1  0
 38 62  1  0
M  CHG  1   5  -1
M  END
>  <EmbedRMS>  (265) 
0.08786509395004233

$$$$

     RDKit          3D

 62 65  0  0  0  0  0  0  0  0999 V2000
   10.2822   43.7752   33.8088 C   0  0  0  0  0  0  0  0  0  0  0  0
   11.4051   43.5917   34.3647 O   0  0  0  0  0  0  0  0  0  0  0  0
    9.3710   42.7285   33.6948 O   0  0  0  0  0  0  0  0  0  0  0  0
    9.8867   41.2333   34.2833 P   0  0  0  0  0  5  0  0  0  0  0  0
   10.3658   41.4707   35.8739 O   0  0  0  0  0  1  0  0  0  0  0  0
    9.9450   45.1223   33.2617 C   0  0  2  0  0  0  0  0  0  0  0  0
   11.0792   46.0245   33.4676 N   0  0  0  0  0  0  0  0  0  0  0  0
    8.6949   45.7022   33.9571 C   0  0  0  0  0  0  0  0  0  0  0  0
    7.4507   44.9441   33.6073 C   0  0  0  0  0  0  0  0  0  0  0  0
    6.8998   44.0585   34.5406 O   0  0  0  0  0  0  0  0  0  0  0  0
    6.9314   45.0854   32.4665 O   0  0  0  0  0  0  0  0  0  0  0  0
    5.7468   43.2620   34.2790 C   0  0  0  0  0  0  0  0  0  0  0  0
    4.5104   44.1183   34.2552 C   0  0  0  0  0  0  0  0  0  0  0  0
    4.0631   44.7356   35.4346 C   0  0  0  0  0  0  0  0  0  0  0  0
    3.8077   44.3297   33.0571 C   0  0  0  0  0  0  0  0  0  0  0  0
    2.9242   45.5469   35.4164 C   0  0  0  0  0  0  0  0  0  0  0  0
    2.6693   45.1420   33.0432 C   0  0  0  0  0  0  0  0  0  0  0  0
    2.2275   45.7495   34.2218 C   0  0  0  0  0  0  0  0  0  0  0  0
    8.8079   40.1917   34.2081 O   0  0  0  0  0  0  0  0  0  0  0  0
   11.2379   40.7882   33.3681 O   0  0  0  0  0  0  0  0  0  0  0  0
   10.9161   40.6878   31.9949 C   0  0  0  0  0  0  0  0  0  0  0  0
   11.5263   39.3869   31.4361 C   0  0  0  0  0  0  0  0  0  0  0  0
   12.7494   39.0890   32.0814 O   0  0  0  0  0  0  0  0  0  0  0  0
   10.6124   38.1893   31.6460 C   0  0  0  0  0  0  0  0  0  0  0  0
   12.9374   37.6824   32.0300 C   0  0  0  0  0  0  0  0  0  0  0  0
    9.6150   38.0838   30.6538 O   0  0  0  0  0  0  0  0  0  0  0  0
   11.5793   37.0135   31.7013 C   0  0  0  0  0  0  0  0  0  0  0  0
   13.4906   37.2169   33.3242 N   0  0  0  0  0  0  0  0  0  0  0  0
   11.6215   36.3251   30.4725 O   0  0  0  0  0  0  0  0  0  0  0  0
   14.4763   36.3266   33.5731 C   0  0  0  0  0  0  0  0  0  0  0  0
   13.1181   37.6308   34.5694 C   0  0  0  0  0  0  0  0  0  0  0  0
   15.2066   35.6137   32.6740 N   0  0  0  0  0  0  0  0  0  0  0  0
   14.6736   36.2270   34.9185 C   0  0  0  0  0  0  0  0  0  0  0  0
   13.8229   37.0451   35.5787 N   0  0  0  0  0  0  0  0  0  0  0  0
   16.1639   34.7593   33.1547 C   0  0  0  0  0  0  0  0  0  0  0  0
   15.6519   35.3489   35.4132 C   0  0  0  0  0  0  0  0  0  0  0  0
   16.3795   34.6308   34.5042 N   0  0  0  0  0  0  0  0  0  0  0  0
   15.9006   35.1931   36.8090 N   0  0  0  0  0  0  0  0  0  0  0  0
    9.7501   45.0255   32.1692 H   0  0  0  0  0  0  0  0  0  0  0  0
   10.8355   46.9617   33.0716 H   0  0  0  0  0  0  0  0  0  0  0  0
   11.8824   45.6830   32.8895 H   0  0  0  0  0  0  0  0  0  0  0  0
    8.8373   45.6981   35.0601 H   0  0  0  0  0  0  0  0  0  0  0  0
    8.5498   46.7595   33.6456 H   0  0  0  0  0  0  0  0  0  0  0  0
    5.8800   42.7057   33.3251 H   0  0  0  0  0  0  0  0  0  0  0  0
    5.6465   42.5075   35.0875 H   0  0  0  0  0  0  0  0  0  0  0  0
    4.5974   44.5892   36.3652 H   0  0  0  0  0  0  0  0  0  0  0  0
    4.1408   43.8694   32.1352 H   0  0  0  0  0  0  0  0  0  0  0  0
    2.5827   46.0198   36.3281 H   0  0  0  0  0  0  0  0  0  0  0  0
    2.1306   45.3017   32.1182 H   0  0  0  0  0  0  0  0  0  0  0  0
    1.3467   46.3783   34.2091 H   0  0  0  0  0  0  0  0  0  0  0  0
   11.3839   41.5501   31.4734 H   0  0  0  0  0  0  0  0  0  0  0  0
    9.8260   40.7181   31.7578 H   0  0  0  0  0  0  0  0  0  0  0  0
   11.7292   39.5286   30.3500 H   0  0  0  0  0  0  0  0  0  0  0  0
   10.1141   38.2720   32.6379 H   0  0  0  0  0  0  0  0  0  0  0  0
   13.6726   37.4631   31.2239 H   0  0  0  0  0  0  0  0  0  0  0  0
   10.0534   38.1084   29.7638 H   0  0  0  0  0  0  0  0  0  0  0  0
   11.2645   36.3134   32.5107 H   0  0  0  0  0  0  0  0  0  0  0  0
   12.1547   35.5030   30.6316 H   0  0  0  0  0  0  0  0  0  0  0  0
   12.3361   38.3585   34.7449 H   0  0  0  0  0  0  0  0  0  0  0  0
   16.7574   34.1788   32.4619 H   0  0  0  0  0  0  0  0  0  0  0  0
   15.3533   35.7353   37.5139 H   0  0  0  0  0  0  0  0  0  0  0  0
   16.6366   34.5314   37.1415 H   0  0  0  0  0  0  0  0  0  0  0  0
  1  2  2  0
  1  3  1  0
  3  4  1  0
  4  5  1  0
  6  1  1  0
  7  6  1  0
  6  8  1  0
  8  9  1  0
  9 10  1  0
  9 11  2  0
 10 12  1  0
 12 13  1  0
 13 14  2  0
 15 13  1  0
 14 16  1  0
 17 15  2  0
 16 18  2  0
 18 17  1  0
  4 19  2  0
  4 20  1  0
 21 20  1  0
 21 22  1  0
 22 23  1  0
 22 24  1  0
 23 25  1  0
 24 26  1  0
 24 27  1  0
 27 25  1  0
 25 28  1  0
 27 29  1  0
 30 28  1  0
 31 28  1  0
 32 30  2  0
 30 33  1  0
 34 31  2  0
 35 32  1  0
 33 36  2  0
 33 34  1  0
 37 35  2  0
 37 36  1  0
 36 38  1  0
  6 39  1  6
  7 40  1  0
  7 41  1  0
  8 42  1  0
  8 43  1  0
 12 44  1  0
 12 45  1  0
 14 46  1  0
 15 47  1  0
 16 48  1  0
 17 49  1  0
 18 50  1  0
 21 51  1  0
 21 52  1  0
 22 53  1  0
 24 54  1  0
 25 55  1  0
 26 56  1  0
 27 57  1  0
 29 58  1  0
 31 59  1  0
 35 60  1  0
 38 61  1  0
 38 62  1  0
M  CHG  1   5  -1
M  END
>  <EmbedRMS>  (266) 
0.08841995117740288

$$$$

     RDKit          3D

 62 65  0  0  0  0  0  0  0  0999 V2000
   10.2861   43.7719   33.8037 C   0  0  0  0  0  0  0  0  0  0  0  0
   11.4106   43.5876   34.3556 O   0  0  0  0  0  0  0  0  0  0  0  0
    9.3667   42.7312   33.7010 O   0  0  0  0  0  0  0  0  0  0  0  0
    9.8850   41.2343   34.2853 P   0  0  0  0  0  5  0  0  0  0  0  0
   10.3681   41.4691   35.8743 O   0  0  0  0  0  1  0  0  0  0  0  0
    9.9608   45.1097   33.2378 C   0  0  2  0  0  0  0  0  0  0  0  0
   11.0640   46.0385   33.4927 N   0  0  0  0  0  0  0  0  0  0  0  0
    8.6140   45.6555   33.7652 C   0  0  0  0  0  0  0  0  0  0  0  0
    8.5729   45.7767   35.2606 C   0  0  0  0  0  0  0  0  0  0  0  0
    8.4786   44.6198   36.0380 O   0  0  0  0  0  0  0  0  0  0  0  0
    8.6404   46.9136   35.8028 O   0  0  0  0  0  0  0  0  0  0  0  0
    8.4145   44.6421   37.4591 C   0  0  0  0  0  0  0  0  0  0  0  0
    8.4211   43.2316   37.9731 C   0  0  0  0  0  0  0  0  0  0  0  0
    9.4857   42.7582   38.7589 C   0  0  0  0  0  0  0  0  0  0  0  0
    7.3701   42.3609   37.6411 C   0  0  0  0  0  0  0  0  0  0  0  0
    9.4949   41.4330   39.2060 C   0  0  0  0  0  0  0  0  0  0  0  0
    7.3848   41.0361   38.0879 C   0  0  0  0  0  0  0  0  0  0  0  0
    8.4462   40.5725   38.8699 C   0  0  0  0  0  0  0  0  0  0  0  0
    8.8074   40.1915   34.2105 O   0  0  0  0  0  0  0  0  0  0  0  0
   11.2372   40.7903   33.3700 O   0  0  0  0  0  0  0  0  0  0  0  0
   10.9180   40.6904   31.9965 C   0  0  0  0  0  0  0  0  0  0  0  0
   11.5171   39.3824   31.4414 C   0  0  0  0  0  0  0  0  0  0  0  0
   12.7492   39.0894   32.0757 O   0  0  0  0  0  0  0  0  0  0  0  0
   10.6034   38.1899   31.6660 C   0  0  0  0  0  0  0  0  0  0  0  0
   12.9400   37.6835   32.0277 C   0  0  0  0  0  0  0  0  0  0  0  0
    9.6376   38.0784   30.6474 O   0  0  0  0  0  0  0  0  0  0  0  0
   11.5803   37.0204   31.6937 C   0  0  0  0  0  0  0  0  0  0  0  0
   13.4901   37.2178   33.3238 N   0  0  0  0  0  0  0  0  0  0  0  0
   11.6118   36.3194   30.4680 O   0  0  0  0  0  0  0  0  0  0  0  0
   14.4758   36.3272   33.5731 C   0  0  0  0  0  0  0  0  0  0  0  0
   13.1175   37.6318   34.5689 C   0  0  0  0  0  0  0  0  0  0  0  0
   15.2063   35.6142   32.6742 N   0  0  0  0  0  0  0  0  0  0  0  0
   14.6729   36.2275   34.9185 C   0  0  0  0  0  0  0  0  0  0  0  0
   13.8221   37.0458   35.5784 N   0  0  0  0  0  0  0  0  0  0  0  0
   16.1636   34.7597   33.1549 C   0  0  0  0  0  0  0  0  0  0  0  0
   15.6513   35.3493   35.4133 C   0  0  0  0  0  0  0  0  0  0  0  0
   16.3790   34.6312   34.5044 N   0  0  0  0  0  0  0  0  0  0  0  0
   15.9001   35.1935   36.8091 N   0  0  0  0  0  0  0  0  0  0  0  0
    9.8659   44.9820   32.1371 H   0  0  0  0  0  0  0  0  0  0  0  0
   10.8641   46.9384   32.9983 H   0  0  0  0  0  0  0  0  0  0  0  0
   11.1223   46.2526   34.5152 H   0  0  0  0  0  0  0  0  0  0  0  0
    8.4135   46.6473   33.3041 H   0  0  0  0  0  0  0  0  0  0  0  0
    7.7924   44.9793   33.4441 H   0  0  0  0  0  0  0  0  0  0  0  0
    9.2793   45.2139   37.8618 H   0  0  0  0  0  0  0  0  0  0  0  0
    7.4790   45.1479   37.7822 H   0  0  0  0  0  0  0  0  0  0  0  0
   10.3103   43.4096   39.0202 H   0  0  0  0  0  0  0  0  0  0  0  0
    6.5452   42.7070   37.0303 H   0  0  0  0  0  0  0  0  0  0  0  0
   10.3177   41.0719   39.8093 H   0  0  0  0  0  0  0  0  0  0  0  0
    6.5744   40.3682   37.8259 H   0  0  0  0  0  0  0  0  0  0  0  0
    8.4569   39.5464   39.2139 H   0  0  0  0  0  0  0  0  0  0  0  0
   11.3986   41.5456   31.4750 H   0  0  0  0  0  0  0  0  0  0  0  0
    9.8300   40.7391   31.7567 H   0  0  0  0  0  0  0  0  0  0  0  0
   11.6985   39.5094   30.3491 H   0  0  0  0  0  0  0  0  0  0  0  0
   10.1128   38.2587   32.6665 H   0  0  0  0  0  0  0  0  0  0  0  0
   13.6800   37.4630   31.2266 H   0  0  0  0  0  0  0  0  0  0  0  0
    8.8949   38.6903   30.8894 H   0  0  0  0  0  0  0  0  0  0  0  0
   11.2831   36.3060   32.4929 H   0  0  0  0  0  0  0  0  0  0  0  0
   11.8860   36.9590   29.7593 H   0  0  0  0  0  0  0  0  0  0  0  0
   12.3359   38.3601   34.7443 H   0  0  0  0  0  0  0  0  0  0  0  0
   16.7572   34.1793   32.4621 H   0  0  0  0  0  0  0  0  0  0  0  0
   16.6361   34.5318   37.1416 H   0  0  0  0  0  0  0  0  0  0  0  0
   15.3528   35.7357   37.5140 H   0  0  0  0  0  0  0  0  0  0  0  0
  1  2  2  0
  1  3  1  0
  3  4  1  0
  4  5  1  0
  6  1  1  0
  7  6  1  0
  6  8  1  0
  8  9  1  0
  9 10  1  0
  9 11  2  0
 10 12  1  0
 12 13  1  0
 13 14  2  0
 15 13  1  0
 14 16  1  0
 17 15  2  0
 16 18  2  0
 18 17  1  0
  4 19  2  0
  4 20  1  0
 21 20  1  0
 21 22  1  0
 22 23  1  0
 22 24  1  0
 23 25  1  0
 24 26  1  0
 24 27  1  0
 27 25  1  0
 25 28  1  0
 27 29  1  0
 30 28  1  0
 31 28  1  0
 32 30  2  0
 30 33  1  0
 34 31  2  0
 35 32  1  0
 33 36  2  0
 33 34  1  0
 37 35  2  0
 37 36  1  0
 36 38  1  0
  6 39  1  6
  7 40  1  0
  7 41  1  0
  8 42  1  0
  8 43  1  0
 12 44  1  0
 12 45  1  0
 14 46  1  0
 15 47  1  0
 16 48  1  0
 17 49  1  0
 18 50  1  0
 21 51  1  0
 21 52  1  0
 22 53  1  0
 24 54  1  0
 25 55  1  0
 26 56  1  0
 27 57  1  0
 29 58  1  0
 31 59  1  0
 35 60  1  0
 38 61  1  0
 38 62  1  0
M  CHG  1   5  -1
M  END
>  <EmbedRMS>  (267) 
0.08816819339430432

$$$$

     RDKit          3D

 62 65  0  0  0  0  0  0  0  0999 V2000
   10.2872   43.7704   33.8070 C   0  0  0  0  0  0  0  0  0  0  0  0
   11.4116   43.5800   34.3570 O   0  0  0  0  0  0  0  0  0  0  0  0
    9.3667   42.7311   33.6998 O   0  0  0  0  0  0  0  0  0  0  0  0
    9.8840   41.2333   34.2831 P   0  0  0  0  0  5  0  0  0  0  0  0
   10.3654   41.4685   35.8737 O   0  0  0  0  0  1  0  0  0  0  0  0
    9.9574   45.1161   33.2573 C   0  0  2  0  0  0  0  0  0  0  0  0
   11.0681   46.0472   33.4750 N   0  0  0  0  0  0  0  0  0  0  0  0
    8.6729   45.6568   33.9095 C   0  0  0  0  0  0  0  0  0  0  0  0
    8.3324   47.0247   33.4011 C   0  0  0  0  0  0  0  0  0  0  0  0
    8.1829   47.2332   32.0275 O   0  0  0  0  0  0  0  0  0  0  0  0
    8.1726   47.9749   34.2166 O   0  0  0  0  0  0  0  0  0  0  0  0
    7.9274   48.5195   31.4705 C   0  0  0  0  0  0  0  0  0  0  0  0
    7.9178   48.4387   29.9696 C   0  0  0  0  0  0  0  0  0  0  0  0
    8.9190   47.7214   29.2903 C   0  0  0  0  0  0  0  0  0  0  0  0
    6.9500   49.1384   29.2277 C   0  0  0  0  0  0  0  0  0  0  0  0
    8.9293   47.6787   27.8925 C   0  0  0  0  0  0  0  0  0  0  0  0
    6.9664   49.0950   27.8300 C   0  0  0  0  0  0  0  0  0  0  0  0
    7.9522   48.3616   27.1628 C   0  0  0  0  0  0  0  0  0  0  0  0
    8.8064   40.1906   34.2079 O   0  0  0  0  0  0  0  0  0  0  0  0
   11.2363   40.7892   33.3677 O   0  0  0  0  0  0  0  0  0  0  0  0
   10.9157   40.6885   31.9945 C   0  0  0  0  0  0  0  0  0  0  0  0
   11.5249   39.3869   31.4361 C   0  0  0  0  0  0  0  0  0  0  0  0
   12.7483   39.0879   32.0800 O   0  0  0  0  0  0  0  0  0  0  0  0
   10.6100   38.1904   31.6466 C   0  0  0  0  0  0  0  0  0  0  0  0
   12.9347   37.6808   32.0289 C   0  0  0  0  0  0  0  0  0  0  0  0
    9.6121   38.0864   30.6549 O   0  0  0  0  0  0  0  0  0  0  0  0
   11.5766   37.0131   31.7023 C   0  0  0  0  0  0  0  0  0  0  0  0
   13.4899   37.2168   33.3232 N   0  0  0  0  0  0  0  0  0  0  0  0
   11.6321   36.3228   30.4741 O   0  0  0  0  0  0  0  0  0  0  0  0
   14.4758   36.3267   33.5728 C   0  0  0  0  0  0  0  0  0  0  0  0
   13.1172   37.6314   34.5680 C   0  0  0  0  0  0  0  0  0  0  0  0
   15.2066   35.6137   32.6745 N   0  0  0  0  0  0  0  0  0  0  0  0
   14.6724   36.2278   34.9184 C   0  0  0  0  0  0  0  0  0  0  0  0
   13.8216   37.0464   35.5776 N   0  0  0  0  0  0  0  0  0  0  0  0
   16.1641   34.7598   33.1562 C   0  0  0  0  0  0  0  0  0  0  0  0
   15.6517   35.3498   35.4144 C   0  0  0  0  0  0  0  0  0  0  0  0
   16.3794   34.6325   34.5060 N   0  0  0  0  0  0  0  0  0  0  0  0
   15.9060   35.1879   36.8090 N   0  0  0  0  0  0  0  0  0  0  0  0
    9.7882   45.0088   32.1629 H   0  0  0  0  0  0  0  0  0  0  0  0
   11.9131   45.7048   32.9623 H   0  0  0  0  0  0  0  0  0  0  0  0
   11.2976   46.1061   34.4944 H   0  0  0  0  0  0  0  0  0  0  0  0
    7.8220   44.9794   33.6805 H   0  0  0  0  0  0  0  0  0  0  0  0
    8.7969   45.6878   35.0152 H   0  0  0  0  0  0  0  0  0  0  0  0
    8.7231   49.2291   31.7839 H   0  0  0  0  0  0  0  0  0  0  0  0
    6.9492   48.8873   31.8486 H   0  0  0  0  0  0  0  0  0  0  0  0
    9.6922   47.2000   29.8416 H   0  0  0  0  0  0  0  0  0  0  0  0
    6.1866   49.7218   29.7294 H   0  0  0  0  0  0  0  0  0  0  0  0
    9.6986   47.1201   27.3751 H   0  0  0  0  0  0  0  0  0  0  0  0
    6.2155   49.6295   27.2636 H   0  0  0  0  0  0  0  0  0  0  0  0
    7.9640   48.3292   26.0809 H   0  0  0  0  0  0  0  0  0  0  0  0
   11.3854   41.5498   31.4731 H   0  0  0  0  0  0  0  0  0  0  0  0
    9.8260   40.7206   31.7563 H   0  0  0  0  0  0  0  0  0  0  0  0
   11.7273   39.5283   30.3498 H   0  0  0  0  0  0  0  0  0  0  0  0
   10.1127   38.2720   32.6389 H   0  0  0  0  0  0  0  0  0  0  0  0
   13.6688   37.4591   31.2225 H   0  0  0  0  0  0  0  0  0  0  0  0
   10.0499   38.1113   29.7647 H   0  0  0  0  0  0  0  0  0  0  0  0
   11.2797   36.3134   32.5199 H   0  0  0  0  0  0  0  0  0  0  0  0
   10.8620   35.6963   30.4643 H   0  0  0  0  0  0  0  0  0  0  0  0
   12.3346   38.3584   34.7430 H   0  0  0  0  0  0  0  0  0  0  0  0
   16.7581   34.1790   32.4641 H   0  0  0  0  0  0  0  0  0  0  0  0
   15.3528   35.7074   37.5256 H   0  0  0  0  0  0  0  0  0  0  0  0
   15.3533   35.7069   37.5258 H   0  0  0  0  0  0  0  0  0  0  0  0
  1  2  2  0
  1  3  1  0
  3  4  1  0
  4  5  1  0
  6  1  1  0
  7  6  1  0
  6  8  1  0
  8  9  1  0
  9 10  1  0
  9 11  2  0
 10 12  1  0
 12 13  1  0
 13 14  2  0
 15 13  1  0
 14 16  1  0
 17 15  2  0
 16 18  2  0
 18 17  1  0
  4 19  2  0
  4 20  1  0
 21 20  1  0
 21 22  1  0
 22 23  1  0
 22 24  1  0
 23 25  1  0
 24 26  1  0
 24 27  1  0
 27 25  1  0
 25 28  1  0
 27 29  1  0
 30 28  1  0
 31 28  1  0
 32 30  2  0
 30 33  1  0
 34 31  2  0
 35 32  1  0
 33 36  2  0
 33 34  1  0
 37 35  2  0
 37 36  1  0
 36 38  1  0
  6 39  1  6
  7 40  1  0
  7 41  1  0
  8 42  1  0
  8 43  1  0
 12 44  1  0
 12 45  1  0
 14 46  1  0
 15 47  1  0
 16 48  1  0
 17 49  1  0
 18 50  1  0
 21 51  1  0
 21 52  1  0
 22 53  1  0
 24 54  1  0
 25 55  1  0
 26 56  1  0
 27 57  1  0
 29 58  1  0
 31 59  1  0
 35 60  1  0
 38 61  1  0
 38 62  1  0
M  CHG  1   5  -1
M  END
>  <EmbedRMS>  (268) 
0.08844113531321592

$$$$

     RDKit          3D

 62 65  0  0  0  0  0  0  0  0999 V2000
   10.2830   43.7754   33.8075 C   0  0  0  0  0  0  0  0  0  0  0  0
   11.4086   43.5916   34.3578 O   0  0  0  0  0  0  0  0  0  0  0  0
    9.3669   42.7317   33.7011 O   0  0  0  0  0  0  0  0  0  0  0  0
    9.8865   41.2345   34.2838 P   0  0  0  0  0  5  0  0  0  0  0  0
   10.3666   41.4694   35.8744 O   0  0  0  0  0  1  0  0  0  0  0  0
    9.9534   45.1115   33.2435 C   0  0  2  0  0  0  0  0  0  0  0  0
   11.0726   46.0266   33.4848 N   0  0  0  0  0  0  0  0  0  0  0  0
    8.6390   45.6427   33.8540 C   0  0  0  0  0  0  0  0  0  0  0  0
    8.2410   46.9491   33.2420 C   0  0  0  0  0  0  0  0  0  0  0  0
    8.5309   48.1403   33.9164 O   0  0  0  0  0  0  0  0  0  0  0  0
    7.6842   46.9664   32.1104 O   0  0  0  0  0  0  0  0  0  0  0  0
    8.3310   49.4306   33.3445 C   0  0  0  0  0  0  0  0  0  0  0  0
    9.3655   49.6942   32.2849 C   0  0  0  0  0  0  0  0  0  0  0  0
   10.7093   49.8777   32.6490 C   0  0  0  0  0  0  0  0  0  0  0  0
    9.0103   49.7160   30.9258 C   0  0  0  0  0  0  0  0  0  0  0  0
   11.6823   50.0894   31.6674 C   0  0  0  0  0  0  0  0  0  0  0  0
    9.9864   49.9288   29.9472 C   0  0  0  0  0  0  0  0  0  0  0  0
   11.3211   50.1159   30.3175 C   0  0  0  0  0  0  0  0  0  0  0  0
    8.8091   40.1914   34.2077 O   0  0  0  0  0  0  0  0  0  0  0  0
   11.2390   40.7910   33.3682 O   0  0  0  0  0  0  0  0  0  0  0  0
   10.9194   40.6896   31.9946 C   0  0  0  0  0  0  0  0  0  0  0  0
   11.5171   39.3801   31.4397 C   0  0  0  0  0  0  0  0  0  0  0  0
   12.7478   39.0861   32.0734 O   0  0  0  0  0  0  0  0  0  0  0  0
   10.6031   38.1891   31.6666 C   0  0  0  0  0  0  0  0  0  0  0  0
   12.9335   37.6796   32.0280 C   0  0  0  0  0  0  0  0  0  0  0  0
    9.6397   38.0777   30.6456 O   0  0  0  0  0  0  0  0  0  0  0  0
   11.5739   37.0154   31.7057 C   0  0  0  0  0  0  0  0  0  0  0  0
   13.4903   37.2178   33.3231 N   0  0  0  0  0  0  0  0  0  0  0  0
   11.6211   36.3376   30.4695 O   0  0  0  0  0  0  0  0  0  0  0  0
   14.4761   36.3273   33.5725 C   0  0  0  0  0  0  0  0  0  0  0  0
   13.1179   37.6316   34.5684 C   0  0  0  0  0  0  0  0  0  0  0  0
   15.2063   35.6139   32.6737 N   0  0  0  0  0  0  0  0  0  0  0  0
   14.6733   36.2277   34.9180 C   0  0  0  0  0  0  0  0  0  0  0  0
   13.8225   37.0459   35.5779 N   0  0  0  0  0  0  0  0  0  0  0  0
   16.1636   34.7594   33.1546 C   0  0  0  0  0  0  0  0  0  0  0  0
   15.6515   35.3494   35.4129 C   0  0  0  0  0  0  0  0  0  0  0  0
   16.3791   34.6311   34.5041 N   0  0  0  0  0  0  0  0  0  0  0  0
   15.9001   35.1935   36.8088 N   0  0  0  0  0  0  0  0  0  0  0  0
    9.8206   44.9853   32.1456 H   0  0  0  0  0  0  0  0  0  0  0  0
   10.9518   46.8763   32.8875 H   0  0  0  0  0  0  0  0  0  0  0  0
   11.0673   46.3393   34.4838 H   0  0  0  0  0  0  0  0  0  0  0  0
    8.7502   45.7686   34.9533 H   0  0  0  0  0  0  0  0  0  0  0  0
    7.8197   44.9107   33.6813 H   0  0  0  0  0  0  0  0  0  0  0  0
    8.4320   50.1934   34.1452 H   0  0  0  0  0  0  0  0  0  0  0  0
    7.2983   49.5129   32.9396 H   0  0  0  0  0  0  0  0  0  0  0  0
   11.0023   49.8501   33.6913 H   0  0  0  0  0  0  0  0  0  0  0  0
    7.9816   49.5647   30.6235 H   0  0  0  0  0  0  0  0  0  0  0  0
   12.7168   50.2297   31.9530 H   0  0  0  0  0  0  0  0  0  0  0  0
    9.7085   49.9456   28.9013 H   0  0  0  0  0  0  0  0  0  0  0  0
   12.0754   50.2788   29.5587 H   0  0  0  0  0  0  0  0  0  0  0  0
    9.8315   40.7396   31.7549 H   0  0  0  0  0  0  0  0  0  0  0  0
   11.4008   41.5437   31.4721 H   0  0  0  0  0  0  0  0  0  0  0  0
   11.6983   39.5041   30.3470 H   0  0  0  0  0  0  0  0  0  0  0  0
   10.1090   38.2632   32.6650 H   0  0  0  0  0  0  0  0  0  0  0  0
   13.6656   37.4541   31.2207 H   0  0  0  0  0  0  0  0  0  0  0  0
    8.8965   38.6900   30.8852 H   0  0  0  0  0  0  0  0  0  0  0  0
   11.2846   36.3060   32.5175 H   0  0  0  0  0  0  0  0  0  0  0  0
   10.8523   35.7095   30.4590 H   0  0  0  0  0  0  0  0  0  0  0  0
   12.3353   38.3588   34.7439 H   0  0  0  0  0  0  0  0  0  0  0  0
   16.7570   34.1788   32.4619 H   0  0  0  0  0  0  0  0  0  0  0  0
   16.6360   34.5316   37.1413 H   0  0  0  0  0  0  0  0  0  0  0  0
   15.3529   35.7358   37.5136 H   0  0  0  0  0  0  0  0  0  0  0  0
  1  2  2  0
  1  3  1  0
  3  4  1  0
  4  5  1  0
  6  1  1  0
  7  6  1  0
  6  8  1  0
  8  9  1  0
  9 10  1  0
  9 11  2  0
 10 12  1  0
 12 13  1  0
 13 14  2  0
 15 13  1  0
 14 16  1  0
 17 15  2  0
 16 18  2  0
 18 17  1  0
  4 19  2  0
  4 20  1  0
 21 20  1  0
 21 22  1  0
 22 23  1  0
 22 24  1  0
 23 25  1  0
 24 26  1  0
 24 27  1  0
 27 25  1  0
 25 28  1  0
 27 29  1  0
 30 28  1  0
 31 28  1  0
 32 30  2  0
 30 33  1  0
 34 31  2  0
 35 32  1  0
 33 36  2  0
 33 34  1  0
 37 35  2  0
 37 36  1  0
 36 38  1  0
  6 39  1  6
  7 40  1  0
  7 41  1  0
  8 42  1  0
  8 43  1  0
 12 44  1  0
 12 45  1  0
 14 46  1  0
 15 47  1  0
 16 48  1  0
 17 49  1  0
 18 50  1  0
 21 51  1  0
 21 52  1  0
 22 53  1  0
 24 54  1  0
 25 55  1  0
 26 56  1  0
 27 57  1  0
 29 58  1  0
 31 59  1  0
 35 60  1  0
 38 61  1  0
 38 62  1  0
M  CHG  1   5  -1
M  END
>  <EmbedRMS>  (269) 
0.08915457800923877

$$$$

     RDKit          3D

 62 65  0  0  0  0  0  0  0  0999 V2000
   10.2866   43.7707   33.8023 C   0  0  0  0  0  0  0  0  0  0  0  0
   11.4092   43.5868   34.3587 O   0  0  0  0  0  0  0  0  0  0  0  0
    9.3670   42.7307   33.6990 O   0  0  0  0  0  0  0  0  0  0  0  0
    9.8852   41.2343   34.2847 P   0  0  0  0  0  5  0  0  0  0  0  0
   10.3651   41.4710   35.8752 O   0  0  0  0  0  1  0  0  0  0  0  0
    9.9536   45.1150   33.2532 C   0  0  2  0  0  0  0  0  0  0  0  0
   11.0704   46.0345   33.4795 N   0  0  0  0  0  0  0  0  0  0  0  0
    8.6531   45.6664   33.8806 C   0  0  0  0  0  0  0  0  0  0  0  0
    8.6757   45.7221   35.3843 C   0  0  0  0  0  0  0  0  0  0  0  0
    9.8904   45.8262   36.0684 O   0  0  0  0  0  0  0  0  0  0  0  0
    7.5859   45.7049   36.0188 O   0  0  0  0  0  0  0  0  0  0  0  0
    9.9830   45.8084   37.4873 C   0  0  0  0  0  0  0  0  0  0  0  0
   11.4304   45.7949   37.8803 C   0  0  0  0  0  0  0  0  0  0  0  0
   12.0865   46.9866   38.2302 C   0  0  0  0  0  0  0  0  0  0  0  0
   12.1597   44.5955   37.8295 C   0  0  0  0  0  0  0  0  0  0  0  0
   13.4473   46.9715   38.5526 C   0  0  0  0  0  0  0  0  0  0  0  0
   13.5203   44.5849   38.1515 C   0  0  0  0  0  0  0  0  0  0  0  0
   14.1632   45.7714   38.5154 C   0  0  0  0  0  0  0  0  0  0  0  0
    8.8081   40.1911   34.2087 O   0  0  0  0  0  0  0  0  0  0  0  0
   11.2380   40.7904   33.3701 O   0  0  0  0  0  0  0  0  0  0  0  0
   10.9189   40.6905   31.9965 C   0  0  0  0  0  0  0  0  0  0  0  0
   11.5175   39.3825   31.4413 C   0  0  0  0  0  0  0  0  0  0  0  0
   12.7495   39.0893   32.0756 O   0  0  0  0  0  0  0  0  0  0  0  0
   10.6036   38.1900   31.6660 C   0  0  0  0  0  0  0  0  0  0  0  0
   12.9401   37.6834   32.0276 C   0  0  0  0  0  0  0  0  0  0  0  0
    9.6377   38.0786   30.6474 O   0  0  0  0  0  0  0  0  0  0  0  0
   11.5804   37.0204   31.6937 C   0  0  0  0  0  0  0  0  0  0  0  0
   13.4902   37.2177   33.3237 N   0  0  0  0  0  0  0  0  0  0  0  0
   11.6118   36.3193   30.4680 O   0  0  0  0  0  0  0  0  0  0  0  0
   14.4758   36.3271   33.5731 C   0  0  0  0  0  0  0  0  0  0  0  0
   13.1176   37.6318   34.5688 C   0  0  0  0  0  0  0  0  0  0  0  0
   15.2064   35.6141   32.6742 N   0  0  0  0  0  0  0  0  0  0  0  0
   14.6729   36.2274   34.9185 C   0  0  0  0  0  0  0  0  0  0  0  0
   13.8222   37.0458   35.5784 N   0  0  0  0  0  0  0  0  0  0  0  0
   16.1637   34.7597   33.1549 C   0  0  0  0  0  0  0  0  0  0  0  0
   15.6514   35.3493   35.4133 C   0  0  0  0  0  0  0  0  0  0  0  0
   16.3791   34.6312   34.5044 N   0  0  0  0  0  0  0  0  0  0  0  0
   15.9001   35.1935   36.8091 N   0  0  0  0  0  0  0  0  0  0  0  0
    9.7905   45.0076   32.1571 H   0  0  0  0  0  0  0  0  0  0  0  0
   11.8862   45.7112   32.9089 H   0  0  0  0  0  0  0  0  0  0  0  0
   10.8128   46.9714   33.0920 H   0  0  0  0  0  0  0  0  0  0  0  0
    7.8019   45.0269   33.5586 H   0  0  0  0  0  0  0  0  0  0  0  0
    8.4563   46.6880   33.4909 H   0  0  0  0  0  0  0  0  0  0  0  0
    9.4682   46.7001   37.9073 H   0  0  0  0  0  0  0  0  0  0  0  0
    9.4809   44.8994   37.8857 H   0  0  0  0  0  0  0  0  0  0  0  0
   11.5467   47.9252   38.2519 H   0  0  0  0  0  0  0  0  0  0  0  0
   11.6752   43.6717   37.5377 H   0  0  0  0  0  0  0  0  0  0  0  0
   13.9481   47.8910   38.8267 H   0  0  0  0  0  0  0  0  0  0  0  0
   14.0773   43.6575   38.1148 H   0  0  0  0  0  0  0  0  0  0  0  0
   15.2167   45.7620   38.7630 H   0  0  0  0  0  0  0  0  0  0  0  0
    9.8310   40.7398   31.7562 H   0  0  0  0  0  0  0  0  0  0  0  0
   11.4000   41.5455   31.4751 H   0  0  0  0  0  0  0  0  0  0  0  0
   11.6989   39.5093   30.3491 H   0  0  0  0  0  0  0  0  0  0  0  0
   10.1130   38.2589   32.6664 H   0  0  0  0  0  0  0  0  0  0  0  0
   13.6800   37.4628   31.2266 H   0  0  0  0  0  0  0  0  0  0  0  0
    8.8954   38.6910   30.8891 H   0  0  0  0  0  0  0  0  0  0  0  0
   11.2830   36.3060   32.4929 H   0  0  0  0  0  0  0  0  0  0  0  0
   11.8859   36.9590   29.7593 H   0  0  0  0  0  0  0  0  0  0  0  0
   12.3361   38.3602   34.7442 H   0  0  0  0  0  0  0  0  0  0  0  0
   16.7572   34.1793   32.4621 H   0  0  0  0  0  0  0  0  0  0  0  0
   15.3528   35.7357   37.5140 H   0  0  0  0  0  0  0  0  0  0  0  0
   16.6362   34.5318   37.1416 H   0  0  0  0  0  0  0  0  0  0  0  0
  1  2  2  0
  1  3  1  0
  3  4  1  0
  4  5  1  0
  6  1  1  0
  7  6  1  0
  6  8  1  0
  8  9  1  0
  9 10  1  0
  9 11  2  0
 10 12  1  0
 12 13  1  0
 13 14  2  0
 15 13  1  0
 14 16  1  0
 17 15  2  0
 16 18  2  0
 18 17  1  0
  4 19  2  0
  4 20  1  0
 21 20  1  0
 21 22  1  0
 22 23  1  0
 22 24  1  0
 23 25  1  0
 24 26  1  0
 24 27  1  0
 27 25  1  0
 25 28  1  0
 27 29  1  0
 30 28  1  0
 31 28  1  0
 32 30  2  0
 30 33  1  0
 34 31  2  0
 35 32  1  0
 33 36  2  0
 33 34  1  0
 37 35  2  0
 37 36  1  0
 36 38  1  0
  6 39  1  6
  7 40  1  0
  7 41  1  0
  8 42  1  0
  8 43  1  0
 12 44  1  0
 12 45  1  0
 14 46  1  0
 15 47  1  0
 16 48  1  0
 17 49  1  0
 18 50  1  0
 21 51  1  0
 21 52  1  0
 22 53  1  0
 24 54  1  0
 25 55  1  0
 26 56  1  0
 27 57  1  0
 29 58  1  0
 31 59  1  0
 35 60  1  0
 38 61  1  0
 38 62  1  0
M  CHG  1   5  -1
M  END
>  <EmbedRMS>  (270) 
0.08823179266582674

$$$$

     RDKit          3D

 62 65  0  0  0  0  0  0  0  0999 V2000
   10.2862   43.7719   33.8045 C   0  0  0  0  0  0  0  0  0  0  0  0
   11.4087   43.5884   34.3609 O   0  0  0  0  0  0  0  0  0  0  0  0
    9.3678   42.7307   33.6989 O   0  0  0  0  0  0  0  0  0  0  0  0
    9.8858   41.2339   34.2835 P   0  0  0  0  0  5  0  0  0  0  0  0
   10.3655   41.4699   35.8742 O   0  0  0  0  0  1  0  0  0  0  0  0
    9.9528   45.1149   33.2539 C   0  0  2  0  0  0  0  0  0  0  0  0
   11.0712   46.0332   33.4765 N   0  0  0  0  0  0  0  0  0  0  0  0
    8.6607   45.6659   33.8907 C   0  0  0  0  0  0  0  0  0  0  0  0
    8.7955   45.8682   35.3708 C   0  0  0  0  0  0  0  0  0  0  0  0
    9.3440   47.0610   35.8550 O   0  0  0  0  0  0  0  0  0  0  0  0
    8.4504   44.9486   36.1623 O   0  0  0  0  0  0  0  0  0  0  0  0
    9.5109   47.3384   37.2436 C   0  0  0  0  0  0  0  0  0  0  0  0
    8.1778   47.5921   37.8928 C   0  0  0  0  0  0  0  0  0  0  0  0
    7.4417   48.7397   37.5563 C   0  0  0  0  0  0  0  0  0  0  0  0
    7.6444   46.6770   38.8159 C   0  0  0  0  0  0  0  0  0  0  0  0
    6.1933   48.9724   38.1419 C   0  0  0  0  0  0  0  0  0  0  0  0
    6.3954   46.9133   39.3991 C   0  0  0  0  0  0  0  0  0  0  0  0
    5.6708   48.0603   39.0630 C   0  0  0  0  0  0  0  0  0  0  0  0
    8.8082   40.1911   34.2077 O   0  0  0  0  0  0  0  0  0  0  0  0
   11.2383   40.7899   33.3684 O   0  0  0  0  0  0  0  0  0  0  0  0
   10.9189   40.6887   31.9947 C   0  0  0  0  0  0  0  0  0  0  0  0
   11.5181   39.3799   31.4397 C   0  0  0  0  0  0  0  0  0  0  0  0
   12.7485   39.0875   32.0749 O   0  0  0  0  0  0  0  0  0  0  0  0
   10.6054   38.1875   31.6656 C   0  0  0  0  0  0  0  0  0  0  0  0
   12.9361   37.6816   32.0288 C   0  0  0  0  0  0  0  0  0  0  0  0
    9.6423   38.0738   30.6445 O   0  0  0  0  0  0  0  0  0  0  0  0
   11.5765   37.0158   31.7046 C   0  0  0  0  0  0  0  0  0  0  0  0
   13.4908   37.2182   33.3237 N   0  0  0  0  0  0  0  0  0  0  0  0
   11.6102   36.3399   30.4680 O   0  0  0  0  0  0  0  0  0  0  0  0
   14.4762   36.3273   33.5728 C   0  0  0  0  0  0  0  0  0  0  0  0
   13.1181   37.6318   34.5689 C   0  0  0  0  0  0  0  0  0  0  0  0
   15.2063   35.6140   32.6739 N   0  0  0  0  0  0  0  0  0  0  0  0
   14.6733   36.2275   34.9182 C   0  0  0  0  0  0  0  0  0  0  0  0
   13.8226   37.0457   35.5783 N   0  0  0  0  0  0  0  0  0  0  0  0
   16.1635   34.7595   33.1546 C   0  0  0  0  0  0  0  0  0  0  0  0
   15.6515   35.3492   35.4130 C   0  0  0  0  0  0  0  0  0  0  0  0
   16.3791   34.6310   34.5041 N   0  0  0  0  0  0  0  0  0  0  0  0
   15.9002   35.1934   36.8089 N   0  0  0  0  0  0  0  0  0  0  0  0
    9.7822   45.0056   32.1592 H   0  0  0  0  0  0  0  0  0  0  0  0
   10.8098   46.9716   33.0951 H   0  0  0  0  0  0  0  0  0  0  0  0
   11.8822   45.7125   32.8976 H   0  0  0  0  0  0  0  0  0  0  0  0
    8.4027   46.6381   33.4181 H   0  0  0  0  0  0  0  0  0  0  0  0
    7.8146   44.9739   33.6850 H   0  0  0  0  0  0  0  0  0  0  0  0
   10.1418   48.2460   37.3506 H   0  0  0  0  0  0  0  0  0  0  0  0
   10.0536   46.5008   37.7346 H   0  0  0  0  0  0  0  0  0  0  0  0
    7.8345   49.4510   36.8402 H   0  0  0  0  0  0  0  0  0  0  0  0
    8.1919   45.7815   39.0823 H   0  0  0  0  0  0  0  0  0  0  0  0
    5.6302   49.8589   37.8802 H   0  0  0  0  0  0  0  0  0  0  0  0
    5.9885   46.2062   40.1103 H   0  0  0  0  0  0  0  0  0  0  0  0
    4.7041   48.2413   39.5149 H   0  0  0  0  0  0  0  0  0  0  0  0
    9.8310   40.7374   31.7550 H   0  0  0  0  0  0  0  0  0  0  0  0
   11.3994   41.5435   31.4725 H   0  0  0  0  0  0  0  0  0  0  0  0
   11.7002   39.5045   30.3472 H   0  0  0  0  0  0  0  0  0  0  0  0
   10.1104   38.2619   32.6636 H   0  0  0  0  0  0  0  0  0  0  0  0
   13.6696   37.4585   31.2223 H   0  0  0  0  0  0  0  0  0  0  0  0
    8.9000   38.6882   30.8814 H   0  0  0  0  0  0  0  0  0  0  0  0
   11.2690   36.3069   32.5091 H   0  0  0  0  0  0  0  0  0  0  0  0
   12.1426   35.5150   30.6153 H   0  0  0  0  0  0  0  0  0  0  0  0
   12.3359   38.3593   34.7445 H   0  0  0  0  0  0  0  0  0  0  0  0
   16.7569   34.1789   32.4618 H   0  0  0  0  0  0  0  0  0  0  0  0
   16.6362   34.5315   37.1414 H   0  0  0  0  0  0  0  0  0  0  0  0
   15.3530   35.7357   37.5138 H   0  0  0  0  0  0  0  0  0  0  0  0
  1  2  2  0
  1  3  1  0
  3  4  1  0
  4  5  1  0
  6  1  1  0
  7  6  1  0
  6  8  1  0
  8  9  1  0
  9 10  1  0
  9 11  2  0
 10 12  1  0
 12 13  1  0
 13 14  2  0
 15 13  1  0
 14 16  1  0
 17 15  2  0
 16 18  2  0
 18 17  1  0
  4 19  2  0
  4 20  1  0
 21 20  1  0
 21 22  1  0
 22 23  1  0
 22 24  1  0
 23 25  1  0
 24 26  1  0
 24 27  1  0
 27 25  1  0
 25 28  1  0
 27 29  1  0
 30 28  1  0
 31 28  1  0
 32 30  2  0
 30 33  1  0
 34 31  2  0
 35 32  1  0
 33 36  2  0
 33 34  1  0
 37 35  2  0
 37 36  1  0
 36 38  1  0
  6 39  1  6
  7 40  1  0
  7 41  1  0
  8 42  1  0
  8 43  1  0
 12 44  1  0
 12 45  1  0
 14 46  1  0
 15 47  1  0
 16 48  1  0
 17 49  1  0
 18 50  1  0
 21 51  1  0
 21 52  1  0
 22 53  1  0
 24 54  1  0
 25 55  1  0
 26 56  1  0
 27 57  1  0
 29 58  1  0
 31 59  1  0
 35 60  1  0
 38 61  1  0
 38 62  1  0
M  CHG  1   5  -1
M  END
>  <EmbedRMS>  (271) 
0.08934738300082812

$$$$

     RDKit          3D

 62 65  0  0  0  0  0  0  0  0999 V2000
   10.2873   43.7692   33.8093 C   0  0  0  0  0  0  0  0  0  0  0  0
   11.4113   43.5796   34.3601 O   0  0  0  0  0  0  0  0  0  0  0  0
    9.3668   42.7303   33.7017 O   0  0  0  0  0  0  0  0  0  0  0  0
    9.8845   41.2325   34.2840 P   0  0  0  0  0  5  0  0  0  0  0  0
   10.3647   41.4677   35.8747 O   0  0  0  0  0  1  0  0  0  0  0  0
    9.9636   45.1119   33.2470 C   0  0  2  0  0  0  0  0  0  0  0  0
   11.0626   46.0529   33.4757 N   0  0  0  0  0  0  0  0  0  0  0  0
    8.6399   45.6694   33.8078 C   0  0  0  0  0  0  0  0  0  0  0  0
    8.6699   45.8673   35.3054 C   0  0  0  0  0  0  0  0  0  0  0  0
    8.9480   47.1028   35.9095 O   0  0  0  0  0  0  0  0  0  0  0  0
    8.4745   44.8700   36.0491 O   0  0  0  0  0  0  0  0  0  0  0  0
    9.0472   48.3525   35.2261 C   0  0  0  0  0  0  0  0  0  0  0  0
    7.6884   48.8398   34.7977 C   0  0  0  0  0  0  0  0  0  0  0  0
    7.4759   49.2987   33.4866 C   0  0  0  0  0  0  0  0  0  0  0  0
    6.6303   48.8834   35.7212 C   0  0  0  0  0  0  0  0  0  0  0  0
    6.2167   49.7682   33.1000 C   0  0  0  0  0  0  0  0  0  0  0  0
    5.3728   49.3540   35.3306 C   0  0  0  0  0  0  0  0  0  0  0  0
    5.1655   49.7938   34.0204 C   0  0  0  0  0  0  0  0  0  0  0  0
    8.8069   40.1899   34.2074 O   0  0  0  0  0  0  0  0  0  0  0  0
   11.2375   40.7895   33.3687 O   0  0  0  0  0  0  0  0  0  0  0  0
   10.9185   40.6886   31.9949 C   0  0  0  0  0  0  0  0  0  0  0  0
   11.5179   39.3800   31.4398 C   0  0  0  0  0  0  0  0  0  0  0  0
   12.7483   39.0876   32.0750 O   0  0  0  0  0  0  0  0  0  0  0  0
   10.6053   38.1874   31.6656 C   0  0  0  0  0  0  0  0  0  0  0  0
   12.9361   37.6816   32.0288 C   0  0  0  0  0  0  0  0  0  0  0  0
    9.6423   38.0737   30.6445 O   0  0  0  0  0  0  0  0  0  0  0  0
   11.5765   37.0158   31.7046 C   0  0  0  0  0  0  0  0  0  0  0  0
   13.4908   37.2183   33.3237 N   0  0  0  0  0  0  0  0  0  0  0  0
   11.6103   36.3399   30.4680 O   0  0  0  0  0  0  0  0  0  0  0  0
   14.4762   36.3274   33.5728 C   0  0  0  0  0  0  0  0  0  0  0  0
   13.1181   37.6318   34.5689 C   0  0  0  0  0  0  0  0  0  0  0  0
   15.2063   35.6141   32.6738 N   0  0  0  0  0  0  0  0  0  0  0  0
   14.6733   36.2275   34.9182 C   0  0  0  0  0  0  0  0  0  0  0  0
   13.8226   37.0457   35.5783 N   0  0  0  0  0  0  0  0  0  0  0  0
   16.1636   34.7595   33.1546 C   0  0  0  0  0  0  0  0  0  0  0  0
   15.6515   35.3492   35.4130 C   0  0  0  0  0  0  0  0  0  0  0  0
   16.3791   34.6310   34.5041 N   0  0  0  0  0  0  0  0  0  0  0  0
   15.9002   35.1934   36.8089 N   0  0  0  0  0  0  0  0  0  0  0  0
    9.8345   44.9897   32.1490 H   0  0  0  0  0  0  0  0  0  0  0  0
   11.9117   45.7229   32.9606 H   0  0  0  0  0  0  0  0  0  0  0  0
   11.2987   46.1003   34.4942 H   0  0  0  0  0  0  0  0  0  0  0  0
    7.8138   44.9678   33.5589 H   0  0  0  0  0  0  0  0  0  0  0  0
    8.3975   46.6156   33.2866 H   0  0  0  0  0  0  0  0  0  0  0  0
    9.4790   49.0998   35.9240 H   0  0  0  0  0  0  0  0  0  0  0  0
    9.7467   48.2670   34.3678 H   0  0  0  0  0  0  0  0  0  0  0  0
    8.2817   49.2894   32.7631 H   0  0  0  0  0  0  0  0  0  0  0  0
    6.7793   48.5518   36.7414 H   0  0  0  0  0  0  0  0  0  0  0  0
    6.0565   50.1143   32.0871 H   0  0  0  0  0  0  0  0  0  0  0  0
    4.5596   49.3801   36.0444 H   0  0  0  0  0  0  0  0  0  0  0  0
    4.1917   50.1583   33.7197 H   0  0  0  0  0  0  0  0  0  0  0  0
   11.3991   41.5436   31.4730 H   0  0  0  0  0  0  0  0  0  0  0  0
    9.8306   40.7374   31.7549 H   0  0  0  0  0  0  0  0  0  0  0  0
   11.7001   39.5046   30.3473 H   0  0  0  0  0  0  0  0  0  0  0  0
   10.1103   38.2617   32.6636 H   0  0  0  0  0  0  0  0  0  0  0  0
   13.6696   37.4587   31.2222 H   0  0  0  0  0  0  0  0  0  0  0  0
    8.9000   38.6881   30.8813 H   0  0  0  0  0  0  0  0  0  0  0  0
   11.2690   36.3069   32.5091 H   0  0  0  0  0  0  0  0  0  0  0  0
   12.1427   35.5151   30.6153 H   0  0  0  0  0  0  0  0  0  0  0  0
   12.3359   38.3593   34.7445 H   0  0  0  0  0  0  0  0  0  0  0  0
   16.7569   34.1789   32.4618 H   0  0  0  0  0  0  0  0  0  0  0  0
   16.6362   34.5315   37.1413 H   0  0  0  0  0  0  0  0  0  0  0  0
   15.3530   35.7356   37.5138 H   0  0  0  0  0  0  0  0  0  0  0  0
  1  2  2  0
  1  3  1  0
  3  4  1  0
  4  5  1  0
  6  1  1  0
  7  6  1  0
  6  8  1  0
  8  9  1  0
  9 10  1  0
  9 11  2  0
 10 12  1  0
 12 13  1  0
 13 14  2  0
 15 13  1  0
 14 16  1  0
 17 15  2  0
 16 18  2  0
 18 17  1  0
  4 19  2  0
  4 20  1  0
 21 20  1  0
 21 22  1  0
 22 23  1  0
 22 24  1  0
 23 25  1  0
 24 26  1  0
 24 27  1  0
 27 25  1  0
 25 28  1  0
 27 29  1  0
 30 28  1  0
 31 28  1  0
 32 30  2  0
 30 33  1  0
 34 31  2  0
 35 32  1  0
 33 36  2  0
 33 34  1  0
 37 35  2  0
 37 36  1  0
 36 38  1  0
  6 39  1  6
  7 40  1  0
  7 41  1  0
  8 42  1  0
  8 43  1  0
 12 44  1  0
 12 45  1  0
 14 46  1  0
 15 47  1  0
 16 48  1  0
 17 49  1  0
 18 50  1  0
 21 51  1  0
 21 52  1  0
 22 53  1  0
 24 54  1  0
 25 55  1  0
 26 56  1  0
 27 57  1  0
 29 58  1  0
 31 59  1  0
 35 60  1  0
 38 61  1  0
 38 62  1  0
M  CHG  1   5  -1
M  END
>  <EmbedRMS>  (272) 
0.0899451364080694

$$$$

     RDKit          3D

 62 65  0  0  0  0  0  0  0  0999 V2000
   10.2828   43.7724   33.8127 C   0  0  0  0  0  0  0  0  0  0  0  0
   11.4070   43.5830   34.3637 O   0  0  0  0  0  0  0  0  0  0  0  0
    9.3685   42.7291   33.6992 O   0  0  0  0  0  0  0  0  0  0  0  0
    9.8855   41.2324   34.2837 P   0  0  0  0  0  5  0  0  0  0  0  0
   10.3658   41.4682   35.8742 O   0  0  0  0  0  1  0  0  0  0  0  0
    9.9560   45.1187   33.2540 C   0  0  2  0  0  0  0  0  0  0  0  0
   11.0715   46.0431   33.4677 N   0  0  0  0  0  0  0  0  0  0  0  0
    8.6827   45.7076   33.8944 C   0  0  0  0  0  0  0  0  0  0  0  0
    7.4259   45.0417   33.3933 C   0  0  0  0  0  0  0  0  0  0  0  0
    6.8330   45.3662   32.1640 O   0  0  0  0  0  0  0  0  0  0  0  0
    6.9013   44.1335   34.0901 O   0  0  0  0  0  0  0  0  0  0  0  0
    7.1879   46.4851   31.3507 C   0  0  0  0  0  0  0  0  0  0  0  0
    6.6759   47.7675   31.9505 C   0  0  0  0  0  0  0  0  0  0  0  0
    7.5276   48.8750   32.1012 C   0  0  0  0  0  0  0  0  0  0  0  0
    5.3271   47.8810   32.3271 C   0  0  0  0  0  0  0  0  0  0  0  0
    7.0414   50.0688   32.6435 C   0  0  0  0  0  0  0  0  0  0  0  0
    4.8449   49.0768   32.8684 C   0  0  0  0  0  0  0  0  0  0  0  0
    5.7017   50.1691   33.0285 C   0  0  0  0  0  0  0  0  0  0  0  0
    8.8074   40.1903   34.2079 O   0  0  0  0  0  0  0  0  0  0  0  0
   11.2370   40.7898   33.3671 O   0  0  0  0  0  0  0  0  0  0  0  0
   10.9139   40.6858   31.9945 C   0  0  0  0  0  0  0  0  0  0  0  0
   11.5171   39.3796   31.4407 C   0  0  0  0  0  0  0  0  0  0  0  0
   12.7489   39.0885   32.0760 O   0  0  0  0  0  0  0  0  0  0  0  0
   10.6052   38.1876   31.6658 C   0  0  0  0  0  0  0  0  0  0  0  0
   12.9412   37.6827   32.0277 C   0  0  0  0  0  0  0  0  0  0  0  0
    9.6358   38.0930   30.6502 O   0  0  0  0  0  0  0  0  0  0  0  0
   11.5827   37.0179   31.6936 C   0  0  0  0  0  0  0  0  0  0  0  0
   13.4909   37.2176   33.3239 N   0  0  0  0  0  0  0  0  0  0  0  0
   11.6140   36.3179   30.4675 O   0  0  0  0  0  0  0  0  0  0  0  0
   14.4762   36.3269   33.5733 C   0  0  0  0  0  0  0  0  0  0  0  0
   13.1179   37.6316   34.5688 C   0  0  0  0  0  0  0  0  0  0  0  0
   15.2067   35.6140   32.6743 N   0  0  0  0  0  0  0  0  0  0  0  0
   14.6731   36.2272   34.9186 C   0  0  0  0  0  0  0  0  0  0  0  0
   13.8223   37.0456   35.5785 N   0  0  0  0  0  0  0  0  0  0  0  0
   16.1639   34.7595   33.1551 C   0  0  0  0  0  0  0  0  0  0  0  0
   15.6515   35.3491   35.4134 C   0  0  0  0  0  0  0  0  0  0  0  0
   16.3793   34.6310   34.5046 N   0  0  0  0  0  0  0  0  0  0  0  0
   15.9002   35.1933   36.8093 N   0  0  0  0  0  0  0  0  0  0  0  0
    9.8031   45.0071   32.1589 H   0  0  0  0  0  0  0  0  0  0  0  0
   11.9206   45.6879   32.9695 H   0  0  0  0  0  0  0  0  0  0  0  0
   11.2903   46.1164   34.4891 H   0  0  0  0  0  0  0  0  0  0  0  0
    8.7400   45.6105   35.0015 H   0  0  0  0  0  0  0  0  0  0  0  0
    8.6281   46.7944   33.6832 H   0  0  0  0  0  0  0  0  0  0  0  0
    8.2860   46.5146   31.1908 H   0  0  0  0  0  0  0  0  0  0  0  0
    6.7174   46.3565   30.3536 H   0  0  0  0  0  0  0  0  0  0  0  0
    8.5674   48.8139   31.8046 H   0  0  0  0  0  0  0  0  0  0  0  0
    4.6512   47.0439   32.2029 H   0  0  0  0  0  0  0  0  0  0  0  0
    7.7030   50.9169   32.7634 H   0  0  0  0  0  0  0  0  0  0  0  0
    3.8061   49.1573   33.1617 H   0  0  0  0  0  0  0  0  0  0  0  0
    5.3269   51.0940   33.4473 H   0  0  0  0  0  0  0  0  0  0  0  0
    9.8238   40.7212   31.7577 H   0  0  0  0  0  0  0  0  0  0  0  0
   11.3862   41.5433   31.4691 H   0  0  0  0  0  0  0  0  0  0  0  0
   11.6994   39.5064   30.3485 H   0  0  0  0  0  0  0  0  0  0  0  0
   10.1121   38.2723   32.6631 H   0  0  0  0  0  0  0  0  0  0  0  0
   13.6816   37.4630   31.2269 H   0  0  0  0  0  0  0  0  0  0  0  0
    9.0036   37.3829   30.9350 H   0  0  0  0  0  0  0  0  0  0  0  0
   11.2846   36.3040   32.4928 H   0  0  0  0  0  0  0  0  0  0  0  0
   11.8849   36.9589   29.7588 H   0  0  0  0  0  0  0  0  0  0  0  0
   12.3363   38.3599   34.7440 H   0  0  0  0  0  0  0  0  0  0  0  0
   16.7574   34.1790   32.4623 H   0  0  0  0  0  0  0  0  0  0  0  0
   16.6363   34.5317   37.1418 H   0  0  0  0  0  0  0  0  0  0  0  0
   15.3529   35.7355   37.5141 H   0  0  0  0  0  0  0  0  0  0  0  0
  1  2  2  0
  1  3  1  0
  3  4  1  0
  4  5  1  0
  6  1  1  0
  7  6  1  0
  6  8  1  0
  8  9  1  0
  9 10  1  0
  9 11  2  0
 10 12  1  0
 12 13  1  0
 13 14  2  0
 15 13  1  0
 14 16  1  0
 17 15  2  0
 16 18  2  0
 18 17  1  0
  4 19  2  0
  4 20  1  0
 21 20  1  0
 21 22  1  0
 22 23  1  0
 22 24  1  0
 23 25  1  0
 24 26  1  0
 24 27  1  0
 27 25  1  0
 25 28  1  0
 27 29  1  0
 30 28  1  0
 31 28  1  0
 32 30  2  0
 30 33  1  0
 34 31  2  0
 35 32  1  0
 33 36  2  0
 33 34  1  0
 37 35  2  0
 37 36  1  0
 36 38  1  0
  6 39  1  6
  7 40  1  0
  7 41  1  0
  8 42  1  0
  8 43  1  0
 12 44  1  0
 12 45  1  0
 14 46  1  0
 15 47  1  0
 16 48  1  0
 17 49  1  0
 18 50  1  0
 21 51  1  0
 21 52  1  0
 22 53  1  0
 24 54  1  0
 25 55  1  0
 26 56  1  0
 27 57  1  0
 29 58  1  0
 31 59  1  0
 35 60  1  0
 38 61  1  0
 38 62  1  0
M  CHG  1   5  -1
M  END
>  <EmbedRMS>  (273) 
0.0885754792509995

$$$$

     RDKit          3D

 62 65  0  0  0  0  0  0  0  0999 V2000
   10.2844   43.7742   33.8068 C   0  0  0  0  0  0  0  0  0  0  0  0
   11.4068   43.5903   34.3635 O   0  0  0  0  0  0  0  0  0  0  0  0
    9.3680   42.7310   33.6987 O   0  0  0  0  0  0  0  0  0  0  0  0
    9.8859   41.2341   34.2835 P   0  0  0  0  0  5  0  0  0  0  0  0
   10.3663   41.4697   35.8740 O   0  0  0  0  0  1  0  0  0  0  0  0
    9.9491   45.1165   33.2549 C   0  0  2  0  0  0  0  0  0  0  0  0
   11.0755   46.0280   33.4733 N   0  0  0  0  0  0  0  0  0  0  0  0
    8.6783   45.6535   33.9428 C   0  0  0  0  0  0  0  0  0  0  0  0
    8.1796   46.9041   33.2872 C   0  0  0  0  0  0  0  0  0  0  0  0
    8.4583   48.1455   33.8701 O   0  0  0  0  0  0  0  0  0  0  0  0
    7.5413   46.8293   32.2018 O   0  0  0  0  0  0  0  0  0  0  0  0
    8.0124   49.3845   33.3234 C   0  0  0  0  0  0  0  0  0  0  0  0
    6.5286   49.5399   33.5163 C   0  0  0  0  0  0  0  0  0  0  0  0
    5.6546   49.4988   32.4170 C   0  0  0  0  0  0  0  0  0  0  0  0
    6.0032   49.7009   34.8087 C   0  0  0  0  0  0  0  0  0  0  0  0
    4.2752   49.6254   32.6100 C   0  0  0  0  0  0  0  0  0  0  0  0
    4.6234   49.8273   34.9972 C   0  0  0  0  0  0  0  0  0  0  0  0
    3.7601   49.7903   33.8987 C   0  0  0  0  0  0  0  0  0  0  0  0
    8.8081   40.1914   34.2081 O   0  0  0  0  0  0  0  0  0  0  0  0
   11.2374   40.7899   33.3677 O   0  0  0  0  0  0  0  0  0  0  0  0
   10.9156   40.6881   31.9946 C   0  0  0  0  0  0  0  0  0  0  0  0
   11.5262   39.3870   31.4363 C   0  0  0  0  0  0  0  0  0  0  0  0
   12.7492   39.0892   32.0818 O   0  0  0  0  0  0  0  0  0  0  0  0
   10.6123   38.1893   31.6461 C   0  0  0  0  0  0  0  0  0  0  0  0
   12.9374   37.6826   32.0301 C   0  0  0  0  0  0  0  0  0  0  0  0
    9.6150   38.0838   30.6538 O   0  0  0  0  0  0  0  0  0  0  0  0
   11.5793   37.0136   31.7014 C   0  0  0  0  0  0  0  0  0  0  0  0
   13.4906   37.2169   33.3242 N   0  0  0  0  0  0  0  0  0  0  0  0
   11.6216   36.3252   30.4725 O   0  0  0  0  0  0  0  0  0  0  0  0
   14.4763   36.3266   33.5731 C   0  0  0  0  0  0  0  0  0  0  0  0
   13.1182   37.6308   34.5694 C   0  0  0  0  0  0  0  0  0  0  0  0
   15.2065   35.6137   32.6740 N   0  0  0  0  0  0  0  0  0  0  0  0
   14.6736   36.2270   34.9185 C   0  0  0  0  0  0  0  0  0  0  0  0
   13.8229   37.0451   35.5787 N   0  0  0  0  0  0  0  0  0  0  0  0
   16.1639   34.7593   33.1547 C   0  0  0  0  0  0  0  0  0  0  0  0
   15.6519   35.3489   35.4132 C   0  0  0  0  0  0  0  0  0  0  0  0
   16.3795   34.6308   34.5042 N   0  0  0  0  0  0  0  0  0  0  0  0
   15.9006   35.1931   36.8090 N   0  0  0  0  0  0  0  0  0  0  0  0
    9.7632   45.0050   32.1623 H   0  0  0  0  0  0  0  0  0  0  0  0
   10.8454   46.9556   33.0497 H   0  0  0  0  0  0  0  0  0  0  0  0
   11.8950   45.6774   32.9245 H   0  0  0  0  0  0  0  0  0  0  0  0
    7.8673   44.8939   33.8950 H   0  0  0  0  0  0  0  0  0  0  0  0
    8.8865   45.8563   35.0163 H   0  0  0  0  0  0  0  0  0  0  0  0
    8.2957   49.4490   32.2498 H   0  0  0  0  0  0  0  0  0  0  0  0
    8.5323   50.2122   33.8505 H   0  0  0  0  0  0  0  0  0  0  0  0
    6.0387   49.3667   31.4132 H   0  0  0  0  0  0  0  0  0  0  0  0
    6.6623   49.7264   35.6678 H   0  0  0  0  0  0  0  0  0  0  0  0
    3.6054   49.5940   31.7603 H   0  0  0  0  0  0  0  0  0  0  0  0
    4.2233   49.9523   35.9951 H   0  0  0  0  0  0  0  0  0  0  0  0
    2.6922   49.8875   34.0462 H   0  0  0  0  0  0  0  0  0  0  0  0
   11.3830   41.5502   31.4724 H   0  0  0  0  0  0  0  0  0  0  0  0
    9.8254   40.7180   31.7577 H   0  0  0  0  0  0  0  0  0  0  0  0
   11.7292   39.5285   30.3502 H   0  0  0  0  0  0  0  0  0  0  0  0
   10.1140   38.2719   32.6379 H   0  0  0  0  0  0  0  0  0  0  0  0
   13.6726   37.4635   31.2240 H   0  0  0  0  0  0  0  0  0  0  0  0
   10.0536   38.1084   29.7638 H   0  0  0  0  0  0  0  0  0  0  0  0
   11.2646   36.3134   32.5107 H   0  0  0  0  0  0  0  0  0  0  0  0
   12.1549   35.5031   30.6316 H   0  0  0  0  0  0  0  0  0  0  0  0
   12.3362   38.3586   34.7450 H   0  0  0  0  0  0  0  0  0  0  0  0
   16.7573   34.1788   32.4619 H   0  0  0  0  0  0  0  0  0  0  0  0
   16.6366   34.5314   37.1415 H   0  0  0  0  0  0  0  0  0  0  0  0
   15.3533   35.7353   37.5139 H   0  0  0  0  0  0  0  0  0  0  0  0
  1  2  2  0
  1  3  1  0
  3  4  1  0
  4  5  1  0
  6  1  1  0
  7  6  1  0
  6  8  1  0
  8  9  1  0
  9 10  1  0
  9 11  2  0
 10 12  1  0
 12 13  1  0
 13 14  2  0
 15 13  1  0
 14 16  1  0
 17 15  2  0
 16 18  2  0
 18 17  1  0
  4 19  2  0
  4 20  1  0
 21 20  1  0
 21 22  1  0
 22 23  1  0
 22 24  1  0
 23 25  1  0
 24 26  1  0
 24 27  1  0
 27 25  1  0
 25 28  1  0
 27 29  1  0
 30 28  1  0
 31 28  1  0
 32 30  2  0
 30 33  1  0
 34 31  2  0
 35 32  1  0
 33 36  2  0
 33 34  1  0
 37 35  2  0
 37 36  1  0
 36 38  1  0
  6 39  1  6
  7 40  1  0
  7 41  1  0
  8 42  1  0
  8 43  1  0
 12 44  1  0
 12 45  1  0
 14 46  1  0
 15 47  1  0
 16 48  1  0
 17 49  1  0
 18 50  1  0
 21 51  1  0
 21 52  1  0
 22 53  1  0
 24 54  1  0
 25 55  1  0
 26 56  1  0
 27 57  1  0
 29 58  1  0
 31 59  1  0
 35 60  1  0
 38 61  1  0
 38 62  1  0
M  CHG  1   5  -1
M  END
>  <EmbedRMS>  (274) 
0.08800320111270526

$$$$

     RDKit          3D

 62 65  0  0  0  0  0  0  0  0999 V2000
   10.2848   43.7725   33.8070 C   0  0  0  0  0  0  0  0  0  0  0  0
   11.4104   43.5874   34.3564 O   0  0  0  0  0  0  0  0  0  0  0  0
    9.3665   42.7312   33.7014 O   0  0  0  0  0  0  0  0  0  0  0  0
    9.8855   41.2339   34.2841 P   0  0  0  0  0  5  0  0  0  0  0  0
   10.3658   41.4694   35.8746 O   0  0  0  0  0  1  0  0  0  0  0  0
    9.9583   45.1106   33.2437 C   0  0  2  0  0  0  0  0  0  0  0  0
   11.0676   46.0367   33.4846 N   0  0  0  0  0  0  0  0  0  0  0  0
    8.6193   45.6576   33.7887 C   0  0  0  0  0  0  0  0  0  0  0  0
    8.6098   45.8051   35.2816 C   0  0  0  0  0  0  0  0  0  0  0  0
    9.0132   47.0136   35.8553 O   0  0  0  0  0  0  0  0  0  0  0  0
    8.2687   44.8307   36.0067 O   0  0  0  0  0  0  0  0  0  0  0  0
    9.0852   47.2097   37.2627 C   0  0  0  0  0  0  0  0  0  0  0  0
    9.5987   48.5913   37.5419 C   0  0  0  0  0  0  0  0  0  0  0  0
   10.9807   48.8416   37.5486 C   0  0  0  0  0  0  0  0  0  0  0  0
    8.7039   49.6577   37.7298 C   0  0  0  0  0  0  0  0  0  0  0  0
   11.4604   50.1365   37.7700 C   0  0  0  0  0  0  0  0  0  0  0  0
    9.1877   50.9512   37.9511 C   0  0  0  0  0  0  0  0  0  0  0  0
   10.5647   51.1900   37.9737 C   0  0  0  0  0  0  0  0  0  0  0  0
    8.8082   40.1910   34.2080 O   0  0  0  0  0  0  0  0  0  0  0  0
   11.2381   40.7905   33.3684 O   0  0  0  0  0  0  0  0  0  0  0  0
   10.9185   40.6888   31.9948 C   0  0  0  0  0  0  0  0  0  0  0  0
   11.5179   39.3800   31.4399 C   0  0  0  0  0  0  0  0  0  0  0  0
   12.7483   39.0876   32.0751 O   0  0  0  0  0  0  0  0  0  0  0  0
   10.6053   38.1875   31.6657 C   0  0  0  0  0  0  0  0  0  0  0  0
   12.9360   37.6817   32.0288 C   0  0  0  0  0  0  0  0  0  0  0  0
    9.6423   38.0738   30.6445 O   0  0  0  0  0  0  0  0  0  0  0  0
   11.5765   37.0158   31.7046 C   0  0  0  0  0  0  0  0  0  0  0  0
   13.4908   37.2183   33.3237 N   0  0  0  0  0  0  0  0  0  0  0  0
   11.6103   36.3399   30.4680 O   0  0  0  0  0  0  0  0  0  0  0  0
   14.4762   36.3274   33.5728 C   0  0  0  0  0  0  0  0  0  0  0  0
   13.1181   37.6318   34.5689 C   0  0  0  0  0  0  0  0  0  0  0  0
   15.2063   35.6141   32.6739 N   0  0  0  0  0  0  0  0  0  0  0  0
   14.6733   36.2275   34.9182 C   0  0  0  0  0  0  0  0  0  0  0  0
   13.8226   37.0457   35.5783 N   0  0  0  0  0  0  0  0  0  0  0  0
   16.1635   34.7595   33.1546 C   0  0  0  0  0  0  0  0  0  0  0  0
   15.6515   35.3492   35.4130 C   0  0  0  0  0  0  0  0  0  0  0  0
   16.3791   34.6310   34.5041 N   0  0  0  0  0  0  0  0  0  0  0  0
   15.9002   35.1933   36.8089 N   0  0  0  0  0  0  0  0  0  0  0  0
    9.8492   44.9835   32.1443 H   0  0  0  0  0  0  0  0  0  0  0  0
   10.8509   46.9481   33.0192 H   0  0  0  0  0  0  0  0  0  0  0  0
   11.1657   46.2250   34.5088 H   0  0  0  0  0  0  0  0  0  0  0  0
    8.4119   46.6471   33.3273 H   0  0  0  0  0  0  0  0  0  0  0  0
    7.7911   44.9810   33.4836 H   0  0  0  0  0  0  0  0  0  0  0  0
    8.0773   47.0722   37.7123 H   0  0  0  0  0  0  0  0  0  0  0  0
    9.7678   46.4552   37.7120 H   0  0  0  0  0  0  0  0  0  0  0  0
   11.6847   48.0356   37.3814 H   0  0  0  0  0  0  0  0  0  0  0  0
    7.6346   49.4884   37.7045 H   0  0  0  0  0  0  0  0  0  0  0  0
   12.5263   50.3239   37.7796 H   0  0  0  0  0  0  0  0  0  0  0  0
    8.4949   51.7692   38.1010 H   0  0  0  0  0  0  0  0  0  0  0  0
   10.9374   52.1919   38.1435 H   0  0  0  0  0  0  0  0  0  0  0  0
   11.3986   41.5436   31.4722 H   0  0  0  0  0  0  0  0  0  0  0  0
    9.8304   40.7372   31.7554 H   0  0  0  0  0  0  0  0  0  0  0  0
   11.7001   39.5046   30.3474 H   0  0  0  0  0  0  0  0  0  0  0  0
   10.1103   38.2618   32.6637 H   0  0  0  0  0  0  0  0  0  0  0  0
   13.6696   37.4588   31.2223 H   0  0  0  0  0  0  0  0  0  0  0  0
    8.8999   38.6880   30.8814 H   0  0  0  0  0  0  0  0  0  0  0  0
   11.2690   36.3069   32.5091 H   0  0  0  0  0  0  0  0  0  0  0  0
   12.1427   35.5151   30.6153 H   0  0  0  0  0  0  0  0  0  0  0  0
   12.3359   38.3593   34.7445 H   0  0  0  0  0  0  0  0  0  0  0  0
   16.7569   34.1789   32.4618 H   0  0  0  0  0  0  0  0  0  0  0  0
   15.3530   35.7356   37.5138 H   0  0  0  0  0  0  0  0  0  0  0  0
   16.6362   34.5315   37.1413 H   0  0  0  0  0  0  0  0  0  0  0  0
  1  2  2  0
  1  3  1  0
  3  4  1  0
  4  5  1  0
  6  1  1  0
  7  6  1  0
  6  8  1  0
  8  9  1  0
  9 10  1  0
  9 11  2  0
 10 12  1  0
 12 13  1  0
 13 14  2  0
 15 13  1  0
 14 16  1  0
 17 15  2  0
 16 18  2  0
 18 17  1  0
  4 19  2  0
  4 20  1  0
 21 20  1  0
 21 22  1  0
 22 23  1  0
 22 24  1  0
 23 25  1  0
 24 26  1  0
 24 27  1  0
 27 25  1  0
 25 28  1  0
 27 29  1  0
 30 28  1  0
 31 28  1  0
 32 30  2  0
 30 33  1  0
 34 31  2  0
 35 32  1  0
 33 36  2  0
 33 34  1  0
 37 35  2  0
 37 36  1  0
 36 38  1  0
  6 39  1  6
  7 40  1  0
  7 41  1  0
  8 42  1  0
  8 43  1  0
 12 44  1  0
 12 45  1  0
 14 46  1  0
 15 47  1  0
 16 48  1  0
 17 49  1  0
 18 50  1  0
 21 51  1  0
 21 52  1  0
 22 53  1  0
 24 54  1  0
 25 55  1  0
 26 56  1  0
 27 57  1  0
 29 58  1  0
 31 59  1  0
 35 60  1  0
 38 61  1  0
 38 62  1  0
M  CHG  1   5  -1
M  END
>  <EmbedRMS>  (275) 
0.0892050725910254

$$$$

     RDKit          3D

 62 65  0  0  0  0  0  0  0  0999 V2000
   10.2865   43.7708   33.8023 C   0  0  0  0  0  0  0  0  0  0  0  0
   11.4092   43.5867   34.3585 O   0  0  0  0  0  0  0  0  0  0  0  0
    9.3667   42.7309   33.6991 O   0  0  0  0  0  0  0  0  0  0  0  0
    9.8848   41.2345   34.2848 P   0  0  0  0  0  5  0  0  0  0  0  0
   10.3655   41.4711   35.8751 O   0  0  0  0  0  1  0  0  0  0  0  0
    9.9536   45.1152   33.2535 C   0  0  2  0  0  0  0  0  0  0  0  0
   11.0706   46.0345   33.4793 N   0  0  0  0  0  0  0  0  0  0  0  0
    8.6535   45.6668   33.8818 C   0  0  0  0  0  0  0  0  0  0  0  0
    8.6772   45.7247   35.3854 C   0  0  0  0  0  0  0  0  0  0  0  0
    9.8930   45.8173   36.0692 O   0  0  0  0  0  0  0  0  0  0  0  0
    7.5875   45.7194   36.0201 O   0  0  0  0  0  0  0  0  0  0  0  0
    9.9857   45.8013   37.4881 C   0  0  0  0  0  0  0  0  0  0  0  0
   11.4330   45.7734   37.8810 C   0  0  0  0  0  0  0  0  0  0  0  0
   12.1490   44.5658   37.8354 C   0  0  0  0  0  0  0  0  0  0  0  0
   12.1023   46.9593   38.2253 C   0  0  0  0  0  0  0  0  0  0  0  0
   13.5095   44.5416   38.1571 C   0  0  0  0  0  0  0  0  0  0  0  0
   13.4630   46.9307   38.5473 C   0  0  0  0  0  0  0  0  0  0  0  0
   14.1655   45.7226   38.5154 C   0  0  0  0  0  0  0  0  0  0  0  0
    8.8076   40.1913   34.2093 O   0  0  0  0  0  0  0  0  0  0  0  0
   11.2367   40.7903   33.3693 O   0  0  0  0  0  0  0  0  0  0  0  0
   10.9154   40.6898   31.9963 C   0  0  0  0  0  0  0  0  0  0  0  0
   11.5269   39.3899   31.4375 C   0  0  0  0  0  0  0  0  0  0  0  0
   12.7507   39.0917   32.0839 O   0  0  0  0  0  0  0  0  0  0  0  0
   10.6122   38.1916   31.6452 C   0  0  0  0  0  0  0  0  0  0  0  0
   12.9429   37.6853   32.0295 C   0  0  0  0  0  0  0  0  0  0  0  0
    9.6070   38.0858   30.6603 O   0  0  0  0  0  0  0  0  0  0  0  0
   11.5845   37.0186   31.6880 C   0  0  0  0  0  0  0  0  0  0  0  0
   13.4899   37.2164   33.3250 N   0  0  0  0  0  0  0  0  0  0  0  0
   11.6201   36.3063   30.4693 O   0  0  0  0  0  0  0  0  0  0  0  0
   14.4758   36.3263   33.5739 C   0  0  0  0  0  0  0  0  0  0  0  0
   13.1176   37.6308   34.5699 C   0  0  0  0  0  0  0  0  0  0  0  0
   15.2065   35.6139   32.6746 N   0  0  0  0  0  0  0  0  0  0  0  0
   14.6731   36.2268   34.9191 C   0  0  0  0  0  0  0  0  0  0  0  0
   13.8225   37.0451   35.5792 N   0  0  0  0  0  0  0  0  0  0  0  0
   16.1640   34.7596   33.1551 C   0  0  0  0  0  0  0  0  0  0  0  0
   15.6517   35.3489   35.4136 C   0  0  0  0  0  0  0  0  0  0  0  0
   16.3795   34.6310   34.5046 N   0  0  0  0  0  0  0  0  0  0  0  0
   15.9006   35.1931   36.8094 N   0  0  0  0  0  0  0  0  0  0  0  0
    9.7898   45.0080   32.1575 H   0  0  0  0  0  0  0  0  0  0  0  0
   11.8860   45.7111   32.9083 H   0  0  0  0  0  0  0  0  0  0  0  0
   10.8129   46.9714   33.0921 H   0  0  0  0  0  0  0  0  0  0  0  0
    7.8022   45.0266   33.5615 H   0  0  0  0  0  0  0  0  0  0  0  0
    8.4559   46.6878   33.4908 H   0  0  0  0  0  0  0  0  0  0  0  0
    9.4741   44.8984   37.8883 H   0  0  0  0  0  0  0  0  0  0  0  0
    9.4804   46.6991   37.9065 H   0  0  0  0  0  0  0  0  0  0  0  0
   11.6543   43.6461   37.5479 H   0  0  0  0  0  0  0  0  0  0  0  0
   11.5730   47.9040   38.2428 H   0  0  0  0  0  0  0  0  0  0  0  0
   14.0562   43.6080   38.1244 H   0  0  0  0  0  0  0  0  0  0  0  0
   13.9740   47.8458   38.8171 H   0  0  0  0  0  0  0  0  0  0  0  0
   15.2190   45.7027   38.7628 H   0  0  0  0  0  0  0  0  0  0  0  0
   11.3825   41.5527   31.4751 H   0  0  0  0  0  0  0  0  0  0  0  0
    9.8254   40.7191   31.7590 H   0  0  0  0  0  0  0  0  0  0  0  0
   11.7318   39.5340   30.3522 H   0  0  0  0  0  0  0  0  0  0  0  0
   10.1214   38.2682   32.6413 H   0  0  0  0  0  0  0  0  0  0  0  0
   13.6882   37.4709   31.2319 H   0  0  0  0  0  0  0  0  0  0  0  0
   10.0257   38.1752   29.7656 H   0  0  0  0  0  0  0  0  0  0  0  0
   11.2796   36.3124   32.4916 H   0  0  0  0  0  0  0  0  0  0  0  0
   11.9872   36.9100   29.7715 H   0  0  0  0  0  0  0  0  0  0  0  0
   12.3366   38.3597   34.7454 H   0  0  0  0  0  0  0  0  0  0  0  0
   16.7576   34.1794   32.4622 H   0  0  0  0  0  0  0  0  0  0  0  0
   16.6368   34.5316   37.1418 H   0  0  0  0  0  0  0  0  0  0  0  0
   15.3532   35.7352   37.5143 H   0  0  0  0  0  0  0  0  0  0  0  0
  1  2  2  0
  1  3  1  0
  3  4  1  0
  4  5  1  0
  6  1  1  0
  7  6  1  0
  6  8  1  0
  8  9  1  0
  9 10  1  0
  9 11  2  0
 10 12  1  0
 12 13  1  0
 13 14  2  0
 15 13  1  0
 14 16  1  0
 17 15  2  0
 16 18  2  0
 18 17  1  0
  4 19  2  0
  4 20  1  0
 21 20  1  0
 21 22  1  0
 22 23  1  0
 22 24  1  0
 23 25  1  0
 24 26  1  0
 24 27  1  0
 27 25  1  0
 25 28  1  0
 27 29  1  0
 30 28  1  0
 31 28  1  0
 32 30  2  0
 30 33  1  0
 34 31  2  0
 35 32  1  0
 33 36  2  0
 33 34  1  0
 37 35  2  0
 37 36  1  0
 36 38  1  0
  6 39  1  6
  7 40  1  0
  7 41  1  0
  8 42  1  0
  8 43  1  0
 12 44  1  0
 12 45  1  0
 14 46  1  0
 15 47  1  0
 16 48  1  0
 17 49  1  0
 18 50  1  0
 21 51  1  0
 21 52  1  0
 22 53  1  0
 24 54  1  0
 25 55  1  0
 26 56  1  0
 27 57  1  0
 29 58  1  0
 31 59  1  0
 35 60  1  0
 38 61  1  0
 38 62  1  0
M  CHG  1   5  -1
M  END
>  <EmbedRMS>  (276) 
0.08690703031848043

$$$$

     RDKit          3D

 62 65  0  0  0  0  0  0  0  0999 V2000
   10.2871   43.7715   33.8025 C   0  0  0  0  0  0  0  0  0  0  0  0
   11.4090   43.5882   34.3603 O   0  0  0  0  0  0  0  0  0  0  0  0
    9.3678   42.7308   33.6989 O   0  0  0  0  0  0  0  0  0  0  0  0
    9.8854   41.2340   34.2833 P   0  0  0  0  0  5  0  0  0  0  0  0
   10.3678   41.4687   35.8727 O   0  0  0  0  0  1  0  0  0  0  0  0
    9.9539   45.1147   33.2513 C   0  0  2  0  0  0  0  0  0  0  0  0
   11.0693   46.0350   33.4803 N   0  0  0  0  0  0  0  0  0  0  0  0
    8.6563   45.6647   33.8786 C   0  0  0  0  0  0  0  0  0  0  0  0
    8.7833   45.8835   35.3578 C   0  0  0  0  0  0  0  0  0  0  0  0
    8.7816   44.7806   36.2156 O   0  0  0  0  0  0  0  0  0  0  0  0
    8.9162   47.0527   35.8119 O   0  0  0  0  0  0  0  0  0  0  0  0
    8.8959   44.8990   37.6287 C   0  0  0  0  0  0  0  0  0  0  0  0
    8.9662   43.5265   38.2314 C   0  0  0  0  0  0  0  0  0  0  0  0
   10.1765   43.0306   38.7452 C   0  0  0  0  0  0  0  0  0  0  0  0
    7.8279   42.7040   38.2349 C   0  0  0  0  0  0  0  0  0  0  0  0
   10.2402   41.7352   39.2685 C   0  0  0  0  0  0  0  0  0  0  0  0
    7.8966   41.4087   38.7572 C   0  0  0  0  0  0  0  0  0  0  0  0
    9.1014   40.9250   39.2746 C   0  0  0  0  0  0  0  0  0  0  0  0
    8.8073   40.1916   34.2092 O   0  0  0  0  0  0  0  0  0  0  0  0
   11.2365   40.7898   33.3660 O   0  0  0  0  0  0  0  0  0  0  0  0
   10.9133   40.6841   31.9933 C   0  0  0  0  0  0  0  0  0  0  0  0
   11.5174   39.3773   31.4395 C   0  0  0  0  0  0  0  0  0  0  0  0
   12.7476   39.0869   32.0756 O   0  0  0  0  0  0  0  0  0  0  0  0
   10.6068   38.1851   31.6657 C   0  0  0  0  0  0  0  0  0  0  0  0
   12.9371   37.6811   32.0291 C   0  0  0  0  0  0  0  0  0  0  0  0
    9.6403   38.0882   30.6476 O   0  0  0  0  0  0  0  0  0  0  0  0
   11.5789   37.0134   31.7045 C   0  0  0  0  0  0  0  0  0  0  0  0
   13.4914   37.2182   33.3240 N   0  0  0  0  0  0  0  0  0  0  0  0
   11.6125   36.3389   30.4674 O   0  0  0  0  0  0  0  0  0  0  0  0
   14.4765   36.3272   33.5731 C   0  0  0  0  0  0  0  0  0  0  0  0
   13.1184   37.6318   34.5691 C   0  0  0  0  0  0  0  0  0  0  0  0
   15.2066   35.6140   32.6741 N   0  0  0  0  0  0  0  0  0  0  0  0
   14.6735   36.2274   34.9185 C   0  0  0  0  0  0  0  0  0  0  0  0
   13.8227   37.0456   35.5786 N   0  0  0  0  0  0  0  0  0  0  0  0
   16.1637   34.7593   33.1548 C   0  0  0  0  0  0  0  0  0  0  0  0
   15.6516   35.3491   35.4132 C   0  0  0  0  0  0  0  0  0  0  0  0
   16.3792   34.6309   34.5043 N   0  0  0  0  0  0  0  0  0  0  0  0
   15.9003   35.1932   36.8091 N   0  0  0  0  0  0  0  0  0  0  0  0
    9.7904   45.0047   32.1555 H   0  0  0  0  0  0  0  0  0  0  0  0
   11.8836   45.7170   32.9046 H   0  0  0  0  0  0  0  0  0  0  0  0
   10.8073   46.9734   33.0994 H   0  0  0  0  0  0  0  0  0  0  0  0
    8.3864   46.6229   33.3828 H   0  0  0  0  0  0  0  0  0  0  0  0
    7.8189   44.9585   33.6904 H   0  0  0  0  0  0  0  0  0  0  0  0
    9.8053   45.4867   37.8832 H   0  0  0  0  0  0  0  0  0  0  0  0
    8.0106   45.4378   38.0307 H   0  0  0  0  0  0  0  0  0  0  0  0
   11.0703   43.6419   38.7361 H   0  0  0  0  0  0  0  0  0  0  0  0
    6.8910   43.0647   37.8283 H   0  0  0  0  0  0  0  0  0  0  0  0
   11.1742   41.3574   39.6640 H   0  0  0  0  0  0  0  0  0  0  0  0
    7.0166   40.7785   38.7575 H   0  0  0  0  0  0  0  0  0  0  0  0
    9.1535   39.9216   39.6769 H   0  0  0  0  0  0  0  0  0  0  0  0
   11.3847   41.5414   31.4670 H   0  0  0  0  0  0  0  0  0  0  0  0
    9.8231   40.7186   31.7572 H   0  0  0  0  0  0  0  0  0  0  0  0
   11.7005   39.5018   30.3471 H   0  0  0  0  0  0  0  0  0  0  0  0
   10.1097   38.2750   32.6606 H   0  0  0  0  0  0  0  0  0  0  0  0
   13.6713   37.4592   31.2228 H   0  0  0  0  0  0  0  0  0  0  0  0
    9.0032   37.3836   30.9352 H   0  0  0  0  0  0  0  0  0  0  0  0
   11.2706   36.3048   32.5089 H   0  0  0  0  0  0  0  0  0  0  0  0
   12.1443   35.5136   30.6141 H   0  0  0  0  0  0  0  0  0  0  0  0
   12.3361   38.3593   34.7446 H   0  0  0  0  0  0  0  0  0  0  0  0
   16.7570   34.1787   32.4620 H   0  0  0  0  0  0  0  0  0  0  0  0
   15.3531   35.7356   37.5139 H   0  0  0  0  0  0  0  0  0  0  0  0
   16.6362   34.5314   37.1416 H   0  0  0  0  0  0  0  0  0  0  0  0
  1  2  2  0
  1  3  1  0
  3  4  1  0
  4  5  1  0
  6  1  1  0
  7  6  1  0
  6  8  1  0
  8  9  1  0
  9 10  1  0
  9 11  2  0
 10 12  1  0
 12 13  1  0
 13 14  2  0
 15 13  1  0
 14 16  1  0
 17 15  2  0
 16 18  2  0
 18 17  1  0
  4 19  2  0
  4 20  1  0
 21 20  1  0
 21 22  1  0
 22 23  1  0
 22 24  1  0
 23 25  1  0
 24 26  1  0
 24 27  1  0
 27 25  1  0
 25 28  1  0
 27 29  1  0
 30 28  1  0
 31 28  1  0
 32 30  2  0
 30 33  1  0
 34 31  2  0
 35 32  1  0
 33 36  2  0
 33 34  1  0
 37 35  2  0
 37 36  1  0
 36 38  1  0
  6 39  1  6
  7 40  1  0
  7 41  1  0
  8 42  1  0
  8 43  1  0
 12 44  1  0
 12 45  1  0
 14 46  1  0
 15 47  1  0
 16 48  1  0
 17 49  1  0
 18 50  1  0
 21 51  1  0
 21 52  1  0
 22 53  1  0
 24 54  1  0
 25 55  1  0
 26 56  1  0
 27 57  1  0
 29 58  1  0
 31 59  1  0
 35 60  1  0
 38 61  1  0
 38 62  1  0
M  CHG  1   5  -1
M  END
>  <EmbedRMS>  (277) 
0.08885548668908022

$$$$

     RDKit          3D

 62 65  0  0  0  0  0  0  0  0999 V2000
   10.2843   43.7743   33.8069 C   0  0  0  0  0  0  0  0  0  0  0  0
   11.4067   43.5903   34.3636 O   0  0  0  0  0  0  0  0  0  0  0  0
    9.3678   42.7312   33.6990 O   0  0  0  0  0  0  0  0  0  0  0  0
    9.8859   41.2343   34.2834 P   0  0  0  0  0  5  0  0  0  0  0  0
   10.3666   41.4696   35.8739 O   0  0  0  0  0  1  0  0  0  0  0  0
    9.9490   45.1167   33.2551 C   0  0  2  0  0  0  0  0  0  0  0  0
   11.0757   46.0280   33.4731 N   0  0  0  0  0  0  0  0  0  0  0  0
    8.6783   45.6537   33.9433 C   0  0  0  0  0  0  0  0  0  0  0  0
    8.1803   46.9042   33.2868 C   0  0  0  0  0  0  0  0  0  0  0  0
    8.5069   48.1466   33.8370 O   0  0  0  0  0  0  0  0  0  0  0  0
    7.5013   46.8277   32.2264 O   0  0  0  0  0  0  0  0  0  0  0  0
    8.1098   49.3776   33.2439 C   0  0  0  0  0  0  0  0  0  0  0  0
    8.6496   50.5149   34.0601 C   0  0  0  0  0  0  0  0  0  0  0  0
    9.9555   50.9834   33.8408 C   0  0  0  0  0  0  0  0  0  0  0  0
    7.8812   51.0742   35.0945 C   0  0  0  0  0  0  0  0  0  0  0  0
   10.4735   52.0177   34.6268 C   0  0  0  0  0  0  0  0  0  0  0  0
    8.4029   52.1084   35.8782 C   0  0  0  0  0  0  0  0  0  0  0  0
    9.6969   52.5815   35.6430 C   0  0  0  0  0  0  0  0  0  0  0  0
    8.8082   40.1915   34.2082 O   0  0  0  0  0  0  0  0  0  0  0  0
   11.2372   40.7909   33.3668 O   0  0  0  0  0  0  0  0  0  0  0  0
   10.9138   40.6860   31.9943 C   0  0  0  0  0  0  0  0  0  0  0  0
   11.5171   39.3796   31.4408 C   0  0  0  0  0  0  0  0  0  0  0  0
   12.7488   39.0885   32.0761 O   0  0  0  0  0  0  0  0  0  0  0  0
   10.6052   38.1876   31.6659 C   0  0  0  0  0  0  0  0  0  0  0  0
   12.9412   37.6828   32.0278 C   0  0  0  0  0  0  0  0  0  0  0  0
    9.6359   38.0930   30.6503 O   0  0  0  0  0  0  0  0  0  0  0  0
   11.5827   37.0179   31.6936 C   0  0  0  0  0  0  0  0  0  0  0  0
   13.4909   37.2176   33.3239 N   0  0  0  0  0  0  0  0  0  0  0  0
   11.6141   36.3179   30.4675 O   0  0  0  0  0  0  0  0  0  0  0  0
   14.4763   36.3269   33.5733 C   0  0  0  0  0  0  0  0  0  0  0  0
   13.1179   37.6316   34.5688 C   0  0  0  0  0  0  0  0  0  0  0  0
   15.2067   35.6140   32.6744 N   0  0  0  0  0  0  0  0  0  0  0  0
   14.6731   36.2272   34.9186 C   0  0  0  0  0  0  0  0  0  0  0  0
   13.8223   37.0456   35.5785 N   0  0  0  0  0  0  0  0  0  0  0  0
   16.1639   34.7595   33.1551 C   0  0  0  0  0  0  0  0  0  0  0  0
   15.6515   35.3491   35.4134 C   0  0  0  0  0  0  0  0  0  0  0  0
   16.3793   34.6310   34.5046 N   0  0  0  0  0  0  0  0  0  0  0  0
   15.9002   35.1933   36.8093 N   0  0  0  0  0  0  0  0  0  0  0  0
    9.7626   45.0053   32.1626 H   0  0  0  0  0  0  0  0  0  0  0  0
   11.8961   45.6754   32.9269 H   0  0  0  0  0  0  0  0  0  0  0  0
   10.8477   46.9546   33.0460 H   0  0  0  0  0  0  0  0  0  0  0  0
    8.8872   45.8580   35.0165 H   0  0  0  0  0  0  0  0  0  0  0  0
    7.8675   44.8936   33.8971 H   0  0  0  0  0  0  0  0  0  0  0  0
    8.5025   49.4373   32.2050 H   0  0  0  0  0  0  0  0  0  0  0  0
    7.0000   49.4294   33.1952 H   0  0  0  0  0  0  0  0  0  0  0  0
   10.5710   50.5477   33.0633 H   0  0  0  0  0  0  0  0  0  0  0  0
    6.8810   50.7100   35.2940 H   0  0  0  0  0  0  0  0  0  0  0  0
   11.4783   52.3792   34.4507 H   0  0  0  0  0  0  0  0  0  0  0  0
    7.8054   52.5404   36.6706 H   0  0  0  0  0  0  0  0  0  0  0  0
   10.0997   53.3809   36.2515 H   0  0  0  0  0  0  0  0  0  0  0  0
    9.8237   40.7210   31.7578 H   0  0  0  0  0  0  0  0  0  0  0  0
   11.3859   41.5432   31.4683 H   0  0  0  0  0  0  0  0  0  0  0  0
   11.6996   39.5063   30.3486 H   0  0  0  0  0  0  0  0  0  0  0  0
   10.1121   38.2723   32.6631 H   0  0  0  0  0  0  0  0  0  0  0  0
   13.6816   37.4631   31.2269 H   0  0  0  0  0  0  0  0  0  0  0  0
    9.0037   37.3828   30.9349 H   0  0  0  0  0  0  0  0  0  0  0  0
   11.2846   36.3040   32.4928 H   0  0  0  0  0  0  0  0  0  0  0  0
   11.8849   36.9590   29.7588 H   0  0  0  0  0  0  0  0  0  0  0  0
   12.3363   38.3599   34.7440 H   0  0  0  0  0  0  0  0  0  0  0  0
   16.7574   34.1790   32.4623 H   0  0  0  0  0  0  0  0  0  0  0  0
   16.6363   34.5317   37.1418 H   0  0  0  0  0  0  0  0  0  0  0  0
   15.3529   35.7356   37.5141 H   0  0  0  0  0  0  0  0  0  0  0  0
  1  2  2  0
  1  3  1  0
  3  4  1  0
  4  5  1  0
  6  1  1  0
  7  6  1  0
  6  8  1  0
  8  9  1  0
  9 10  1  0
  9 11  2  0
 10 12  1  0
 12 13  1  0
 13 14  2  0
 15 13  1  0
 14 16  1  0
 17 15  2  0
 16 18  2  0
 18 17  1  0
  4 19  2  0
  4 20  1  0
 21 20  1  0
 21 22  1  0
 22 23  1  0
 22 24  1  0
 23 25  1  0
 24 26  1  0
 24 27  1  0
 27 25  1  0
 25 28  1  0
 27 29  1  0
 30 28  1  0
 31 28  1  0
 32 30  2  0
 30 33  1  0
 34 31  2  0
 35 32  1  0
 33 36  2  0
 33 34  1  0
 37 35  2  0
 37 36  1  0
 36 38  1  0
  6 39  1  6
  7 40  1  0
  7 41  1  0
  8 42  1  0
  8 43  1  0
 12 44  1  0
 12 45  1  0
 14 46  1  0
 15 47  1  0
 16 48  1  0
 17 49  1  0
 18 50  1  0
 21 51  1  0
 21 52  1  0
 22 53  1  0
 24 54  1  0
 25 55  1  0
 26 56  1  0
 27 57  1  0
 29 58  1  0
 31 59  1  0
 35 60  1  0
 38 61  1  0
 38 62  1  0
M  CHG  1   5  -1
M  END
>  <EmbedRMS>  (278) 
0.087943786101748

$$$$

     RDKit          3D

 62 65  0  0  0  0  0  0  0  0999 V2000
   10.2817   43.7753   33.8101 C   0  0  0  0  0  0  0  0  0  0  0  0
   11.4044   43.5922   34.3665 O   0  0  0  0  0  0  0  0  0  0  0  0
    9.3701   42.7286   33.6982 O   0  0  0  0  0  0  0  0  0  0  0  0
    9.8872   41.2327   34.2827 P   0  0  0  0  0  5  0  0  0  0  0  0
   10.3660   41.4686   35.8737 O   0  0  0  0  0  1  0  0  0  0  0  0
    9.9505   45.1186   33.2492 C   0  0  2  0  0  0  0  0  0  0  0  0
   11.0764   46.0268   33.4743 N   0  0  0  0  0  0  0  0  0  0  0  0
    8.6796   45.7001   33.9082 C   0  0  0  0  0  0  0  0  0  0  0  0
    7.4420   44.9073   33.5998 C   0  0  0  0  0  0  0  0  0  0  0  0
    7.2877   44.3170   32.3419 O   0  0  0  0  0  0  0  0  0  0  0  0
    6.5347   44.8065   34.4701 O   0  0  0  0  0  0  0  0  0  0  0  0
    6.1759   43.4965   32.0048 C   0  0  0  0  0  0  0  0  0  0  0  0
    6.4097   42.8922   30.6522 C   0  0  0  0  0  0  0  0  0  0  0  0
    6.0339   43.5880   29.4916 C   0  0  0  0  0  0  0  0  0  0  0  0
    7.0818   41.6644   30.5329 C   0  0  0  0  0  0  0  0  0  0  0  0
    6.3026   43.0484   28.2297 C   0  0  0  0  0  0  0  0  0  0  0  0
    7.3509   41.1295   29.2691 C   0  0  0  0  0  0  0  0  0  0  0  0
    6.9594   41.8196   28.1186 C   0  0  0  0  0  0  0  0  0  0  0  0
    8.8086   40.1910   34.2061 O   0  0  0  0  0  0  0  0  0  0  0  0
   11.2394   40.7896   33.3674 O   0  0  0  0  0  0  0  0  0  0  0  0
   10.9192   40.6881   31.9938 C   0  0  0  0  0  0  0  0  0  0  0  0
   11.5181   39.3795   31.4393 C   0  0  0  0  0  0  0  0  0  0  0  0
   12.7488   39.0874   32.0741 O   0  0  0  0  0  0  0  0  0  0  0  0
   10.6058   38.1874   31.6670 C   0  0  0  0  0  0  0  0  0  0  0  0
   12.9363   37.6814   32.0285 C   0  0  0  0  0  0  0  0  0  0  0  0
    9.6411   38.0749   30.6473 O   0  0  0  0  0  0  0  0  0  0  0  0
   11.5767   37.0156   31.7044 C   0  0  0  0  0  0  0  0  0  0  0  0
   13.4909   37.2183   33.3235 N   0  0  0  0  0  0  0  0  0  0  0  0
   11.6098   36.3406   30.4673 O   0  0  0  0  0  0  0  0  0  0  0  0
   14.4762   36.3273   33.5728 C   0  0  0  0  0  0  0  0  0  0  0  0
   13.1181   37.6318   34.5687 C   0  0  0  0  0  0  0  0  0  0  0  0
   15.2064   35.6140   32.6739 N   0  0  0  0  0  0  0  0  0  0  0  0
   14.6733   36.2275   34.9182 C   0  0  0  0  0  0  0  0  0  0  0  0
   13.8225   37.0457   35.5782 N   0  0  0  0  0  0  0  0  0  0  0  0
   16.1636   34.7594   33.1546 C   0  0  0  0  0  0  0  0  0  0  0  0
   15.6515   35.3492   35.4130 C   0  0  0  0  0  0  0  0  0  0  0  0
   16.3791   34.6310   34.5041 N   0  0  0  0  0  0  0  0  0  0  0  0
   15.9002   35.1934   36.8089 N   0  0  0  0  0  0  0  0  0  0  0  0
    9.7860   45.0147   32.1527 H   0  0  0  0  0  0  0  0  0  0  0  0
   11.8912   45.6900   32.9098 H   0  0  0  0  0  0  0  0  0  0  0  0
   10.8341   46.9631   33.0753 H   0  0  0  0  0  0  0  0  0  0  0  0
    8.5126   46.7348   33.5392 H   0  0  0  0  0  0  0  0  0  0  0  0
    8.8250   45.7543   35.0100 H   0  0  0  0  0  0  0  0  0  0  0  0
    6.0571   42.6921   32.7641 H   0  0  0  0  0  0  0  0  0  0  0  0
    5.2471   44.1076   32.0012 H   0  0  0  0  0  0  0  0  0  0  0  0
    5.5371   44.5477   29.5641 H   0  0  0  0  0  0  0  0  0  0  0  0
    7.3970   41.1239   31.4168 H   0  0  0  0  0  0  0  0  0  0  0  0
    6.0070   43.5857   27.3379 H   0  0  0  0  0  0  0  0  0  0  0  0
    7.8662   40.1824   29.1803 H   0  0  0  0  0  0  0  0  0  0  0  0
    7.1694   41.4048   27.1413 H   0  0  0  0  0  0  0  0  0  0  0  0
    9.8320   40.7344   31.7546 H   0  0  0  0  0  0  0  0  0  0  0  0
   11.3979   41.5433   31.4707 H   0  0  0  0  0  0  0  0  0  0  0  0
   11.6993   39.5034   30.3466 H   0  0  0  0  0  0  0  0  0  0  0  0
   10.1144   38.2619   32.6670 H   0  0  0  0  0  0  0  0  0  0  0  0
   13.6698   37.4580   31.2220 H   0  0  0  0  0  0  0  0  0  0  0  0
    8.8789   38.6526   30.9112 H   0  0  0  0  0  0  0  0  0  0  0  0
   11.2696   36.3061   32.5085 H   0  0  0  0  0  0  0  0  0  0  0  0
   12.1424   35.5157   30.6138 H   0  0  0  0  0  0  0  0  0  0  0  0
   12.3358   38.3593   34.7442 H   0  0  0  0  0  0  0  0  0  0  0  0
   16.7569   34.1789   32.4619 H   0  0  0  0  0  0  0  0  0  0  0  0
   16.6361   34.5315   37.1414 H   0  0  0  0  0  0  0  0  0  0  0  0
   15.3530   35.7357   37.5137 H   0  0  0  0  0  0  0  0  0  0  0  0
  1  2  2  0
  1  3  1  0
  3  4  1  0
  4  5  1  0
  6  1  1  0
  7  6  1  0
  6  8  1  0
  8  9  1  0
  9 10  1  0
  9 11  2  0
 10 12  1  0
 12 13  1  0
 13 14  2  0
 15 13  1  0
 14 16  1  0
 17 15  2  0
 16 18  2  0
 18 17  1  0
  4 19  2  0
  4 20  1  0
 21 20  1  0
 21 22  1  0
 22 23  1  0
 22 24  1  0
 23 25  1  0
 24 26  1  0
 24 27  1  0
 27 25  1  0
 25 28  1  0
 27 29  1  0
 30 28  1  0
 31 28  1  0
 32 30  2  0
 30 33  1  0
 34 31  2  0
 35 32  1  0
 33 36  2  0
 33 34  1  0
 37 35  2  0
 37 36  1  0
 36 38  1  0
  6 39  1  6
  7 40  1  0
  7 41  1  0
  8 42  1  0
  8 43  1  0
 12 44  1  0
 12 45  1  0
 14 46  1  0
 15 47  1  0
 16 48  1  0
 17 49  1  0
 18 50  1  0
 21 51  1  0
 21 52  1  0
 22 53  1  0
 24 54  1  0
 25 55  1  0
 26 56  1  0
 27 57  1  0
 29 58  1  0
 31 59  1  0
 35 60  1  0
 38 61  1  0
 38 62  1  0
M  CHG  1   5  -1
M  END
>  <EmbedRMS>  (279) 
0.08960191965529284

$$$$

     RDKit          3D

 62 65  0  0  0  0  0  0  0  0999 V2000
   10.2861   43.7719   33.8036 C   0  0  0  0  0  0  0  0  0  0  0  0
   11.4106   43.5876   34.3556 O   0  0  0  0  0  0  0  0  0  0  0  0
    9.3667   42.7312   33.7008 O   0  0  0  0  0  0  0  0  0  0  0  0
    9.8849   41.2343   34.2850 P   0  0  0  0  0  5  0  0  0  0  0  0
   10.3687   41.4691   35.8738 O   0  0  0  0  0  1  0  0  0  0  0  0
    9.9610   45.1096   33.2374 C   0  0  2  0  0  0  0  0  0  0  0  0
   11.0639   46.0386   33.4930 N   0  0  0  0  0  0  0  0  0  0  0  0
    8.6137   45.6553   33.7636 C   0  0  0  0  0  0  0  0  0  0  0  0
    8.5706   45.7752   35.2591 C   0  0  0  0  0  0  0  0  0  0  0  0
    8.4725   44.6175   36.0352 O   0  0  0  0  0  0  0  0  0  0  0  0
    8.6399   46.9114   35.8024 O   0  0  0  0  0  0  0  0  0  0  0  0
    8.4050   44.6387   37.4560 C   0  0  0  0  0  0  0  0  0  0  0  0
    8.4092   43.2277   37.9686 C   0  0  0  0  0  0  0  0  0  0  0  0
    9.4741   42.7509   38.7519 C   0  0  0  0  0  0  0  0  0  0  0  0
    7.3559   42.3597   37.6370 C   0  0  0  0  0  0  0  0  0  0  0  0
    9.4812   41.4251   39.1972 C   0  0  0  0  0  0  0  0  0  0  0  0
    7.3684   41.0342   38.0822 C   0  0  0  0  0  0  0  0  0  0  0  0
    8.4301   40.5673   38.8618 C   0  0  0  0  0  0  0  0  0  0  0  0
    8.8070   40.1917   34.2110 O   0  0  0  0  0  0  0  0  0  0  0  0
   11.2363   40.7895   33.3686 O   0  0  0  0  0  0  0  0  0  0  0  0
   10.9152   40.6888   31.9955 C   0  0  0  0  0  0  0  0  0  0  0  0
   11.5249   39.3874   31.4367 C   0  0  0  0  0  0  0  0  0  0  0  0
   12.7484   39.0881   32.0805 O   0  0  0  0  0  0  0  0  0  0  0  0
   10.6099   38.1909   31.6471 C   0  0  0  0  0  0  0  0  0  0  0  0
   12.9347   37.6809   32.0293 C   0  0  0  0  0  0  0  0  0  0  0  0
    9.6126   38.0874   30.6547 O   0  0  0  0  0  0  0  0  0  0  0  0
   11.5766   37.0134   31.7026 C   0  0  0  0  0  0  0  0  0  0  0  0
   13.4901   37.2166   33.3237 N   0  0  0  0  0  0  0  0  0  0  0  0
   11.6321   36.3231   30.4742 O   0  0  0  0  0  0  0  0  0  0  0  0
   14.4762   36.3267   33.5728 C   0  0  0  0  0  0  0  0  0  0  0  0
   13.1179   37.6307   34.5690 C   0  0  0  0  0  0  0  0  0  0  0  0
   15.2065   35.6136   32.6738 N   0  0  0  0  0  0  0  0  0  0  0  0
   14.6736   36.2273   34.9182 C   0  0  0  0  0  0  0  0  0  0  0  0
   13.8228   37.0453   35.5784 N   0  0  0  0  0  0  0  0  0  0  0  0
   16.1639   34.7593   33.1546 C   0  0  0  0  0  0  0  0  0  0  0  0
   15.6518   35.3491   35.4131 C   0  0  0  0  0  0  0  0  0  0  0  0
   16.3794   34.6309   34.5042 N   0  0  0  0  0  0  0  0  0  0  0  0
   15.9004   35.1932   36.8089 N   0  0  0  0  0  0  0  0  0  0  0  0
    9.8668   44.9818   32.1366 H   0  0  0  0  0  0  0  0  0  0  0  0
   11.1212   46.2529   34.5154 H   0  0  0  0  0  0  0  0  0  0  0  0
   10.8643   46.9383   32.9981 H   0  0  0  0  0  0  0  0  0  0  0  0
    7.7923   44.9796   33.4409 H   0  0  0  0  0  0  0  0  0  0  0  0
    8.4139   46.6476   33.3031 H   0  0  0  0  0  0  0  0  0  0  0  0
    9.2693   45.2094   37.8616 H   0  0  0  0  0  0  0  0  0  0  0  0
    7.4692   45.1450   37.7773 H   0  0  0  0  0  0  0  0  0  0  0  0
   10.3006   43.4002   39.0125 H   0  0  0  0  0  0  0  0  0  0  0  0
    6.5309   42.7083   37.0280 H   0  0  0  0  0  0  0  0  0  0  0  0
   10.3043   41.0613   39.7986 H   0  0  0  0  0  0  0  0  0  0  0  0
    6.5563   40.3684   37.8207 H   0  0  0  0  0  0  0  0  0  0  0  0
    8.4391   39.5408   39.2045 H   0  0  0  0  0  0  0  0  0  0  0  0
    9.8251   40.7198   31.7585 H   0  0  0  0  0  0  0  0  0  0  0  0
   11.3835   41.5508   31.4740 H   0  0  0  0  0  0  0  0  0  0  0  0
   11.7270   39.5290   30.3504 H   0  0  0  0  0  0  0  0  0  0  0  0
   10.1120   38.2730   32.6391 H   0  0  0  0  0  0  0  0  0  0  0  0
   13.6685   37.4594   31.2225 H   0  0  0  0  0  0  0  0  0  0  0  0
   10.0513   38.1114   29.7648 H   0  0  0  0  0  0  0  0  0  0  0  0
   11.2801   36.3130   32.5196 H   0  0  0  0  0  0  0  0  0  0  0  0
   10.8625   35.6960   30.4647 H   0  0  0  0  0  0  0  0  0  0  0  0
   12.3354   38.3580   34.7446 H   0  0  0  0  0  0  0  0  0  0  0  0
   16.7573   34.1787   32.4619 H   0  0  0  0  0  0  0  0  0  0  0  0
   16.6363   34.5315   37.1414 H   0  0  0  0  0  0  0  0  0  0  0  0
   15.3531   35.7355   37.5138 H   0  0  0  0  0  0  0  0  0  0  0  0
  1  2  2  0
  1  3  1  0
  3  4  1  0
  4  5  1  0
  6  1  1  0
  7  6  1  0
  6  8  1  0
  8  9  1  0
  9 10  1  0
  9 11  2  0
 10 12  1  0
 12 13  1  0
 13 14  2  0
 15 13  1  0
 14 16  1  0
 17 15  2  0
 16 18  2  0
 18 17  1  0
  4 19  2  0
  4 20  1  0
 21 20  1  0
 21 22  1  0
 22 23  1  0
 22 24  1  0
 23 25  1  0
 24 26  1  0
 24 27  1  0
 27 25  1  0
 25 28  1  0
 27 29  1  0
 30 28  1  0
 31 28  1  0
 32 30  2  0
 30 33  1  0
 34 31  2  0
 35 32  1  0
 33 36  2  0
 33 34  1  0
 37 35  2  0
 37 36  1  0
 36 38  1  0
  6 39  1  6
  7 40  1  0
  7 41  1  0
  8 42  1  0
  8 43  1  0
 12 44  1  0
 12 45  1  0
 14 46  1  0
 15 47  1  0
 16 48  1  0
 17 49  1  0
 18 50  1  0
 21 51  1  0
 21 52  1  0
 22 53  1  0
 24 54  1  0
 25 55  1  0
 26 56  1  0
 27 57  1  0
 29 58  1  0
 31 59  1  0
 35 60  1  0
 38 61  1  0
 38 62  1  0
M  CHG  1   5  -1
M  END
>  <EmbedRMS>  (280) 
0.08799342959017045

$$$$

     RDKit          3D

 62 65  0  0  0  0  0  0  0  0999 V2000
   10.2810   43.7751   33.8077 C   0  0  0  0  0  0  0  0  0  0  0  0
   11.4039   43.5911   34.3640 O   0  0  0  0  0  0  0  0  0  0  0  0
    9.3695   42.7287   33.6944 O   0  0  0  0  0  0  0  0  0  0  0  0
    9.8869   41.2334   34.2823 P   0  0  0  0  0  5  0  0  0  0  0  0
   10.3661   41.4706   35.8730 O   0  0  0  0  0  1  0  0  0  0  0  0
    9.9451   45.1235   33.2622 C   0  0  2  0  0  0  0  0  0  0  0  0
   11.0813   46.0235   33.4682 N   0  0  0  0  0  0  0  0  0  0  0  0
    8.6975   45.7035   33.9623 C   0  0  0  0  0  0  0  0  0  0  0  0
    7.4385   45.0127   33.5344 C   0  0  0  0  0  0  0  0  0  0  0  0
    6.8986   44.0044   34.3373 O   0  0  0  0  0  0  0  0  0  0  0  0
    6.8925   45.3266   32.4414 O   0  0  0  0  0  0  0  0  0  0  0  0
    5.7100   43.3012   33.9938 C   0  0  0  0  0  0  0  0  0  0  0  0
    5.4638   42.2226   35.0074 C   0  0  0  0  0  0  0  0  0  0  0  0
    5.6965   40.8744   34.6883 C   0  0  0  0  0  0  0  0  0  0  0  0
    5.0426   42.5610   36.3036 C   0  0  0  0  0  0  0  0  0  0  0  0
    5.4995   39.8792   35.6508 C   0  0  0  0  0  0  0  0  0  0  0  0
    4.8453   41.5627   37.2629 C   0  0  0  0  0  0  0  0  0  0  0  0
    5.0732   40.2229   36.9367 C   0  0  0  0  0  0  0  0  0  0  0  0
    8.8111   40.1892   34.2076 O   0  0  0  0  0  0  0  0  0  0  0  0
   11.2382   40.7901   33.3657 O   0  0  0  0  0  0  0  0  0  0  0  0
   10.9142   40.6842   31.9931 C   0  0  0  0  0  0  0  0  0  0  0  0
   11.5176   39.3772   31.4393 C   0  0  0  0  0  0  0  0  0  0  0  0
   12.7479   39.0867   32.0754 O   0  0  0  0  0  0  0  0  0  0  0  0
   10.6068   38.1852   31.6658 C   0  0  0  0  0  0  0  0  0  0  0  0
   12.9371   37.6809   32.0290 C   0  0  0  0  0  0  0  0  0  0  0  0
    9.6402   38.0883   30.6478 O   0  0  0  0  0  0  0  0  0  0  0  0
   11.5787   37.0134   31.7046 C   0  0  0  0  0  0  0  0  0  0  0  0
   13.4914   37.2181   33.3239 N   0  0  0  0  0  0  0  0  0  0  0  0
   11.6122   36.3389   30.4674 O   0  0  0  0  0  0  0  0  0  0  0  0
   14.4766   36.3272   33.5730 C   0  0  0  0  0  0  0  0  0  0  0  0
   13.1184   37.6317   34.5690 C   0  0  0  0  0  0  0  0  0  0  0  0
   15.2066   35.6139   32.6741 N   0  0  0  0  0  0  0  0  0  0  0  0
   14.6735   36.2274   34.9184 C   0  0  0  0  0  0  0  0  0  0  0  0
   13.8227   37.0455   35.5785 N   0  0  0  0  0  0  0  0  0  0  0  0
   16.1638   34.7593   33.1548 C   0  0  0  0  0  0  0  0  0  0  0  0
   15.6517   35.3491   35.4132 C   0  0  0  0  0  0  0  0  0  0  0  0
   16.3792   34.6308   34.5043 N   0  0  0  0  0  0  0  0  0  0  0  0
   15.9003   35.1932   36.8091 N   0  0  0  0  0  0  0  0  0  0  0  0
    9.7498   45.0293   32.1695 H   0  0  0  0  0  0  0  0  0  0  0  0
   11.8855   45.6774   32.8942 H   0  0  0  0  0  0  0  0  0  0  0  0
   10.8422   46.9594   33.0664 H   0  0  0  0  0  0  0  0  0  0  0  0
    8.5946   46.7826   33.7150 H   0  0  0  0  0  0  0  0  0  0  0  0
    8.8083   45.6290   35.0666 H   0  0  0  0  0  0  0  0  0  0  0  0
    5.8141   42.8651   32.9757 H   0  0  0  0  0  0  0  0  0  0  0  0
    4.8500   44.0056   33.9823 H   0  0  0  0  0  0  0  0  0  0  0  0
    6.0325   40.5932   33.6980 H   0  0  0  0  0  0  0  0  0  0  0  0
    4.8711   43.5966   36.5703 H   0  0  0  0  0  0  0  0  0  0  0  0
    5.6802   38.8419   35.4004 H   0  0  0  0  0  0  0  0  0  0  0  0
    4.5191   41.8282   38.2602 H   0  0  0  0  0  0  0  0  0  0  0  0
    4.9222   39.4515   37.6808 H   0  0  0  0  0  0  0  0  0  0  0  0
   11.3856   41.5412   31.4664 H   0  0  0  0  0  0  0  0  0  0  0  0
    9.8239   40.7189   31.7571 H   0  0  0  0  0  0  0  0  0  0  0  0
   11.7006   39.5016   30.3469 H   0  0  0  0  0  0  0  0  0  0  0  0
   10.1098   38.2754   32.6608 H   0  0  0  0  0  0  0  0  0  0  0  0
   13.6712   37.4588   31.2227 H   0  0  0  0  0  0  0  0  0  0  0  0
    9.0020   37.3850   30.9363 H   0  0  0  0  0  0  0  0  0  0  0  0
   11.2704   36.3048   32.5089 H   0  0  0  0  0  0  0  0  0  0  0  0
   12.1439   35.5135   30.6142 H   0  0  0  0  0  0  0  0  0  0  0  0
   12.3360   38.3591   34.7444 H   0  0  0  0  0  0  0  0  0  0  0  0
   16.7571   34.1787   32.4620 H   0  0  0  0  0  0  0  0  0  0  0  0
   16.6362   34.5314   37.1416 H   0  0  0  0  0  0  0  0  0  0  0  0
   15.3531   35.7355   37.5139 H   0  0  0  0  0  0  0  0  0  0  0  0
  1  2  2  0
  1  3  1  0
  3  4  1  0
  4  5  1  0
  6  1  1  0
  7  6  1  0
  6  8  1  0
  8  9  1  0
  9 10  1  0
  9 11  2  0
 10 12  1  0
 12 13  1  0
 13 14  2  0
 15 13  1  0
 14 16  1  0
 17 15  2  0
 16 18  2  0
 18 17  1  0
  4 19  2  0
  4 20  1  0
 21 20  1  0
 21 22  1  0
 22 23  1  0
 22 24  1  0
 23 25  1  0
 24 26  1  0
 24 27  1  0
 27 25  1  0
 25 28  1  0
 27 29  1  0
 30 28  1  0
 31 28  1  0
 32 30  2  0
 30 33  1  0
 34 31  2  0
 35 32  1  0
 33 36  2  0
 33 34  1  0
 37 35  2  0
 37 36  1  0
 36 38  1  0
  6 39  1  6
  7 40  1  0
  7 41  1  0
  8 42  1  0
  8 43  1  0
 12 44  1  0
 12 45  1  0
 14 46  1  0
 15 47  1  0
 16 48  1  0
 17 49  1  0
 18 50  1  0
 21 51  1  0
 21 52  1  0
 22 53  1  0
 24 54  1  0
 25 55  1  0
 26 56  1  0
 27 57  1  0
 29 58  1  0
 31 59  1  0
 35 60  1  0
 38 61  1  0
 38 62  1  0
M  CHG  1   5  -1
M  END
>  <EmbedRMS>  (281) 
0.08909273781359534

$$$$

     RDKit          3D

 62 65  0  0  0  0  0  0  0  0999 V2000
   10.2871   43.7713   33.8023 C   0  0  0  0  0  0  0  0  0  0  0  0
   11.4094   43.5878   34.3592 O   0  0  0  0  0  0  0  0  0  0  0  0
    9.3678   42.7307   33.6983 O   0  0  0  0  0  0  0  0  0  0  0  0
    9.8852   41.2344   34.2841 P   0  0  0  0  0  5  0  0  0  0  0  0
   10.3656   41.4711   35.8745 O   0  0  0  0  0  1  0  0  0  0  0  0
    9.9519   45.1156   33.2558 C   0  0  2  0  0  0  0  0  0  0  0  0
   11.0707   46.0335   33.4776 N   0  0  0  0  0  0  0  0  0  0  0  0
    8.6625   45.6650   33.8996 C   0  0  0  0  0  0  0  0  0  0  0  0
    8.7971   45.8398   35.3833 C   0  0  0  0  0  0  0  0  0  0  0  0
    8.5654   44.7469   36.2262 O   0  0  0  0  0  0  0  0  0  0  0  0
    9.1580   46.9531   35.8535 O   0  0  0  0  0  0  0  0  0  0  0  0
    8.6824   44.8127   37.6452 C   0  0  0  0  0  0  0  0  0  0  0  0
    7.5359   45.5907   38.2302 C   0  0  0  0  0  0  0  0  0  0  0  0
    6.2333   45.0693   38.1714 C   0  0  0  0  0  0  0  0  0  0  0  0
    7.7483   46.8513   38.8132 C   0  0  0  0  0  0  0  0  0  0  0  0
    5.1598   45.7954   38.6966 C   0  0  0  0  0  0  0  0  0  0  0  0
    6.6719   47.5743   39.3371 C   0  0  0  0  0  0  0  0  0  0  0  0
    5.3789   47.0466   39.2796 C   0  0  0  0  0  0  0  0  0  0  0  0
    8.8075   40.1917   34.2090 O   0  0  0  0  0  0  0  0  0  0  0  0
   11.2366   40.7903   33.3677 O   0  0  0  0  0  0  0  0  0  0  0  0
   10.9137   40.6860   31.9950 C   0  0  0  0  0  0  0  0  0  0  0  0
   11.5170   39.3797   31.4410 C   0  0  0  0  0  0  0  0  0  0  0  0
   12.7488   39.0886   32.0762 O   0  0  0  0  0  0  0  0  0  0  0  0
   10.6051   38.1876   31.6659 C   0  0  0  0  0  0  0  0  0  0  0  0
   12.9412   37.6828   32.0278 C   0  0  0  0  0  0  0  0  0  0  0  0
    9.6359   38.0931   30.6503 O   0  0  0  0  0  0  0  0  0  0  0  0
   11.5827   37.0179   31.6936 C   0  0  0  0  0  0  0  0  0  0  0  0
   13.4909   37.2176   33.3239 N   0  0  0  0  0  0  0  0  0  0  0  0
   11.6140   36.3180   30.4675 O   0  0  0  0  0  0  0  0  0  0  0  0
   14.4762   36.3270   33.5733 C   0  0  0  0  0  0  0  0  0  0  0  0
   13.1179   37.6316   34.5689 C   0  0  0  0  0  0  0  0  0  0  0  0
   15.2067   35.6140   32.6744 N   0  0  0  0  0  0  0  0  0  0  0  0
   14.6731   36.2273   34.9186 C   0  0  0  0  0  0  0  0  0  0  0  0
   13.8223   37.0456   35.5785 N   0  0  0  0  0  0  0  0  0  0  0  0
   16.1639   34.7595   33.1551 C   0  0  0  0  0  0  0  0  0  0  0  0
   15.6515   35.3491   35.4134 C   0  0  0  0  0  0  0  0  0  0  0  0
   16.3792   34.6310   34.5046 N   0  0  0  0  0  0  0  0  0  0  0  0
   15.9002   35.1933   36.8093 N   0  0  0  0  0  0  0  0  0  0  0  0
    9.7774   45.0096   32.1614 H   0  0  0  0  0  0  0  0  0  0  0  0
   11.8804   45.7138   32.8964 H   0  0  0  0  0  0  0  0  0  0  0  0
   10.8084   46.9725   33.0984 H   0  0  0  0  0  0  0  0  0  0  0  0
    8.4029   46.6410   33.4344 H   0  0  0  0  0  0  0  0  0  0  0  0
    7.8162   44.9747   33.6920 H   0  0  0  0  0  0  0  0  0  0  0  0
    9.6641   45.2545   37.9248 H   0  0  0  0  0  0  0  0  0  0  0  0
    8.6602   43.7790   38.0506 H   0  0  0  0  0  0  0  0  0  0  0  0
    6.0510   44.1028   37.7178 H   0  0  0  0  0  0  0  0  0  0  0  0
    8.7437   47.2751   38.8604 H   0  0  0  0  0  0  0  0  0  0  0  0
    4.1578   45.3889   38.6500 H   0  0  0  0  0  0  0  0  0  0  0  0
    6.8399   48.5447   39.7861 H   0  0  0  0  0  0  0  0  0  0  0  0
    4.5470   47.6078   39.6850 H   0  0  0  0  0  0  0  0  0  0  0  0
   11.3858   41.5434   31.4695 H   0  0  0  0  0  0  0  0  0  0  0  0
    9.8236   40.7211   31.7583 H   0  0  0  0  0  0  0  0  0  0  0  0
   11.6993   39.5067   30.3488 H   0  0  0  0  0  0  0  0  0  0  0  0
   10.1120   38.2722   32.6632 H   0  0  0  0  0  0  0  0  0  0  0  0
   13.6816   37.4632   31.2269 H   0  0  0  0  0  0  0  0  0  0  0  0
    9.0037   37.3828   30.9349 H   0  0  0  0  0  0  0  0  0  0  0  0
   11.2846   36.3040   32.4928 H   0  0  0  0  0  0  0  0  0  0  0  0
   11.8850   36.9590   29.7588 H   0  0  0  0  0  0  0  0  0  0  0  0
   12.3363   38.3599   34.7441 H   0  0  0  0  0  0  0  0  0  0  0  0
   16.7574   34.1791   32.4623 H   0  0  0  0  0  0  0  0  0  0  0  0
   16.6363   34.5317   37.1418 H   0  0  0  0  0  0  0  0  0  0  0  0
   15.3529   35.7355   37.5141 H   0  0  0  0  0  0  0  0  0  0  0  0
  1  2  2  0
  1  3  1  0
  3  4  1  0
  4  5  1  0
  6  1  1  0
  7  6  1  0
  6  8  1  0
  8  9  1  0
  9 10  1  0
  9 11  2  0
 10 12  1  0
 12 13  1  0
 13 14  2  0
 15 13  1  0
 14 16  1  0
 17 15  2  0
 16 18  2  0
 18 17  1  0
  4 19  2  0
  4 20  1  0
 21 20  1  0
 21 22  1  0
 22 23  1  0
 22 24  1  0
 23 25  1  0
 24 26  1  0
 24 27  1  0
 27 25  1  0
 25 28  1  0
 27 29  1  0
 30 28  1  0
 31 28  1  0
 32 30  2  0
 30 33  1  0
 34 31  2  0
 35 32  1  0
 33 36  2  0
 33 34  1  0
 37 35  2  0
 37 36  1  0
 36 38  1  0
  6 39  1  6
  7 40  1  0
  7 41  1  0
  8 42  1  0
  8 43  1  0
 12 44  1  0
 12 45  1  0
 14 46  1  0
 15 47  1  0
 16 48  1  0
 17 49  1  0
 18 50  1  0
 21 51  1  0
 21 52  1  0
 22 53  1  0
 24 54  1  0
 25 55  1  0
 26 56  1  0
 27 57  1  0
 29 58  1  0
 31 59  1  0
 35 60  1  0
 38 61  1  0
 38 62  1  0
M  CHG  1   5  -1
M  END
>  <EmbedRMS>  (282) 
0.08787632863823586

$$$$

     RDKit          3D

 62 65  0  0  0  0  0  0  0  0999 V2000
   10.2828   43.7755   33.8077 C   0  0  0  0  0  0  0  0  0  0  0  0
   11.4085   43.5916   34.3578 O   0  0  0  0  0  0  0  0  0  0  0  0
    9.3666   42.7319   33.7016 O   0  0  0  0  0  0  0  0  0  0  0  0
    9.8861   41.2348   34.2846 P   0  0  0  0  0  5  0  0  0  0  0  0
   10.3662   41.4697   35.8751 O   0  0  0  0  0  1  0  0  0  0  0  0
    9.9535   45.1115   33.2433 C   0  0  2  0  0  0  0  0  0  0  0  0
   11.0727   46.0266   33.4847 N   0  0  0  0  0  0  0  0  0  0  0  0
    8.6389   45.6431   33.8532 C   0  0  0  0  0  0  0  0  0  0  0  0
    8.2407   46.9485   33.2393 C   0  0  0  0  0  0  0  0  0  0  0  0
    8.5342   48.1410   33.9098 O   0  0  0  0  0  0  0  0  0  0  0  0
    7.6806   46.9637   32.1093 O   0  0  0  0  0  0  0  0  0  0  0  0
    8.3356   49.4301   33.3348 C   0  0  0  0  0  0  0  0  0  0  0  0
    9.3684   49.6888   32.2724 C   0  0  0  0  0  0  0  0  0  0  0  0
   10.7130   49.8732   32.6335 C   0  0  0  0  0  0  0  0  0  0  0  0
    9.0112   49.7045   30.9138 C   0  0  0  0  0  0  0  0  0  0  0  0
   11.6845   50.0799   31.6494 C   0  0  0  0  0  0  0  0  0  0  0  0
    9.9858   49.9123   29.9327 C   0  0  0  0  0  0  0  0  0  0  0  0
   11.3212   50.1004   30.3000 C   0  0  0  0  0  0  0  0  0  0  0  0
    8.8089   40.1914   34.2082 O   0  0  0  0  0  0  0  0  0  0  0  0
   11.2386   40.7916   33.3693 O   0  0  0  0  0  0  0  0  0  0  0  0
   10.9187   40.6907   31.9960 C   0  0  0  0  0  0  0  0  0  0  0  0
   11.5175   39.3824   31.4412 C   0  0  0  0  0  0  0  0  0  0  0  0
   12.7494   39.0893   32.0757 O   0  0  0  0  0  0  0  0  0  0  0  0
   10.6036   38.1900   31.6660 C   0  0  0  0  0  0  0  0  0  0  0  0
   12.9401   37.6834   32.0276 C   0  0  0  0  0  0  0  0  0  0  0  0
    9.6376   38.0785   30.6474 O   0  0  0  0  0  0  0  0  0  0  0  0
   11.5803   37.0204   31.6937 C   0  0  0  0  0  0  0  0  0  0  0  0
   13.4902   37.2177   33.3237 N   0  0  0  0  0  0  0  0  0  0  0  0
   11.6118   36.3193   30.4680 O   0  0  0  0  0  0  0  0  0  0  0  0
   14.4759   36.3271   33.5731 C   0  0  0  0  0  0  0  0  0  0  0  0
   13.1176   37.6317   34.5688 C   0  0  0  0  0  0  0  0  0  0  0  0
   15.2064   35.6142   32.6742 N   0  0  0  0  0  0  0  0  0  0  0  0
   14.6729   36.2274   34.9184 C   0  0  0  0  0  0  0  0  0  0  0  0
   13.8221   37.0457   35.5783 N   0  0  0  0  0  0  0  0  0  0  0  0
   16.1637   34.7597   33.1549 C   0  0  0  0  0  0  0  0  0  0  0  0
   15.6514   35.3493   35.4133 C   0  0  0  0  0  0  0  0  0  0  0  0
   16.3791   34.6312   34.5043 N   0  0  0  0  0  0  0  0  0  0  0  0
   15.9001   35.1934   36.8091 N   0  0  0  0  0  0  0  0  0  0  0  0
    9.8210   44.9849   32.1455 H   0  0  0  0  0  0  0  0  0  0  0  0
   11.0671   46.3396   34.4835 H   0  0  0  0  0  0  0  0  0  0  0  0
   10.9522   46.8759   32.8869 H   0  0  0  0  0  0  0  0  0  0  0  0
    7.8199   44.9106   33.6816 H   0  0  0  0  0  0  0  0  0  0  0  0
    8.7503   45.7706   34.9523 H   0  0  0  0  0  0  0  0  0  0  0  0
    7.3023   49.5132   32.9316 H   0  0  0  0  0  0  0  0  0  0  0  0
    8.4395   50.1949   34.1332 H   0  0  0  0  0  0  0  0  0  0  0  0
   11.0076   49.8501   33.6755 H   0  0  0  0  0  0  0  0  0  0  0  0
    7.9819   49.5524   30.6138 H   0  0  0  0  0  0  0  0  0  0  0  0
   12.7195   50.2209   31.9328 H   0  0  0  0  0  0  0  0  0  0  0  0
    9.7063   49.9244   28.8871 H   0  0  0  0  0  0  0  0  0  0  0  0
   12.0744   50.2593   29.5393 H   0  0  0  0  0  0  0  0  0  0  0  0
    9.8307   40.7396   31.7563 H   0  0  0  0  0  0  0  0  0  0  0  0
   11.3992   41.5455   31.4737 H   0  0  0  0  0  0  0  0  0  0  0  0
   11.6989   39.5091   30.3490 H   0  0  0  0  0  0  0  0  0  0  0  0
   10.1130   38.2589   32.6664 H   0  0  0  0  0  0  0  0  0  0  0  0
   13.6800   37.4628   31.2265 H   0  0  0  0  0  0  0  0  0  0  0  0
    8.8952   38.6908   30.8891 H   0  0  0  0  0  0  0  0  0  0  0  0
   11.2830   36.3060   32.4929 H   0  0  0  0  0  0  0  0  0  0  0  0
   11.8859   36.9589   29.7593 H   0  0  0  0  0  0  0  0  0  0  0  0
   12.3360   38.3600   34.7442 H   0  0  0  0  0  0  0  0  0  0  0  0
   16.7572   34.1793   32.4621 H   0  0  0  0  0  0  0  0  0  0  0  0
   15.3528   35.7356   37.5140 H   0  0  0  0  0  0  0  0  0  0  0  0
   16.6362   34.5318   37.1416 H   0  0  0  0  0  0  0  0  0  0  0  0
  1  2  2  0
  1  3  1  0
  3  4  1  0
  4  5  1  0
  6  1  1  0
  7  6  1  0
  6  8  1  0
  8  9  1  0
  9 10  1  0
  9 11  2  0
 10 12  1  0
 12 13  1  0
 13 14  2  0
 15 13  1  0
 14 16  1  0
 17 15  2  0
 16 18  2  0
 18 17  1  0
  4 19  2  0
  4 20  1  0
 21 20  1  0
 21 22  1  0
 22 23  1  0
 22 24  1  0
 23 25  1  0
 24 26  1  0
 24 27  1  0
 27 25  1  0
 25 28  1  0
 27 29  1  0
 30 28  1  0
 31 28  1  0
 32 30  2  0
 30 33  1  0
 34 31  2  0
 35 32  1  0
 33 36  2  0
 33 34  1  0
 37 35  2  0
 37 36  1  0
 36 38  1  0
  6 39  1  6
  7 40  1  0
  7 41  1  0
  8 42  1  0
  8 43  1  0
 12 44  1  0
 12 45  1  0
 14 46  1  0
 15 47  1  0
 16 48  1  0
 17 49  1  0
 18 50  1  0
 21 51  1  0
 21 52  1  0
 22 53  1  0
 24 54  1  0
 25 55  1  0
 26 56  1  0
 27 57  1  0
 29 58  1  0
 31 59  1  0
 35 60  1  0
 38 61  1  0
 38 62  1  0
M  CHG  1   5  -1
M  END
>  <EmbedRMS>  (283) 
0.08801758658780545

$$$$

     RDKit          3D

 62 65  0  0  0  0  0  0  0  0999 V2000
   10.2829   43.7754   33.8078 C   0  0  0  0  0  0  0  0  0  0  0  0
   11.4086   43.5914   34.3578 O   0  0  0  0  0  0  0  0  0  0  0  0
    9.3666   42.7319   33.7017 O   0  0  0  0  0  0  0  0  0  0  0  0
    9.8860   41.2347   34.2846 P   0  0  0  0  0  5  0  0  0  0  0  0
   10.3662   41.4696   35.8751 O   0  0  0  0  0  1  0  0  0  0  0  0
    9.9539   45.1111   33.2430 C   0  0  2  0  0  0  0  0  0  0  0  0
   11.0723   46.0271   33.4848 N   0  0  0  0  0  0  0  0  0  0  0  0
    8.6387   45.6434   33.8513 C   0  0  0  0  0  0  0  0  0  0  0  0
    8.2433   46.9449   33.2280 C   0  0  0  0  0  0  0  0  0  0  0  0
    7.7915   46.9612   31.9041 O   0  0  0  0  0  0  0  0  0  0  0  0
    8.3611   48.0164   33.8830 O   0  0  0  0  0  0  0  0  0  0  0  0
    7.6104   48.1619   31.1579 C   0  0  0  0  0  0  0  0  0  0  0  0
    8.9451   48.7819   30.8450 C   0  0  0  0  0  0  0  0  0  0  0  0
    9.3102   50.0185   31.4028 C   0  0  0  0  0  0  0  0  0  0  0  0
    9.8559   48.1022   30.0199 C   0  0  0  0  0  0  0  0  0  0  0  0
   10.5669   50.5688   31.1313 C   0  0  0  0  0  0  0  0  0  0  0  0
   11.1117   48.6554   29.7518 C   0  0  0  0  0  0  0  0  0  0  0  0
   11.4668   49.8880   30.3065 C   0  0  0  0  0  0  0  0  0  0  0  0
    8.8089   40.1914   34.2081 O   0  0  0  0  0  0  0  0  0  0  0  0
   11.2385   40.7916   33.3693 O   0  0  0  0  0  0  0  0  0  0  0  0
   10.9187   40.6907   31.9959 C   0  0  0  0  0  0  0  0  0  0  0  0
   11.5174   39.3824   31.4412 C   0  0  0  0  0  0  0  0  0  0  0  0
   12.7494   39.0893   32.0757 O   0  0  0  0  0  0  0  0  0  0  0  0
   10.6036   38.1900   31.6660 C   0  0  0  0  0  0  0  0  0  0  0  0
   12.9401   37.6834   32.0276 C   0  0  0  0  0  0  0  0  0  0  0  0
    9.6376   38.0785   30.6474 O   0  0  0  0  0  0  0  0  0  0  0  0
   11.5803   37.0204   31.6937 C   0  0  0  0  0  0  0  0  0  0  0  0
   13.4902   37.2177   33.3237 N   0  0  0  0  0  0  0  0  0  0  0  0
   11.6118   36.3193   30.4680 O   0  0  0  0  0  0  0  0  0  0  0  0
   14.4759   36.3271   33.5731 C   0  0  0  0  0  0  0  0  0  0  0  0
   13.1176   37.6317   34.5688 C   0  0  0  0  0  0  0  0  0  0  0  0
   15.2064   35.6142   32.6742 N   0  0  0  0  0  0  0  0  0  0  0  0
   14.6729   36.2274   34.9184 C   0  0  0  0  0  0  0  0  0  0  0  0
   13.8221   37.0457   35.5783 N   0  0  0  0  0  0  0  0  0  0  0  0
   16.1637   34.7597   33.1549 C   0  0  0  0  0  0  0  0  0  0  0  0
   15.6514   35.3493   35.4133 C   0  0  0  0  0  0  0  0  0  0  0  0
   16.3791   34.6312   34.5044 N   0  0  0  0  0  0  0  0  0  0  0  0
   15.9001   35.1935   36.8091 N   0  0  0  0  0  0  0  0  0  0  0  0
    9.8234   44.9842   32.1449 H   0  0  0  0  0  0  0  0  0  0  0  0
   10.9456   46.8825   32.8963 H   0  0  0  0  0  0  0  0  0  0  0  0
   11.0720   46.3304   34.4866 H   0  0  0  0  0  0  0  0  0  0  0  0
    7.8193   44.9144   33.6709 H   0  0  0  0  0  0  0  0  0  0  0  0
    8.7459   45.7656   34.9520 H   0  0  0  0  0  0  0  0  0  0  0  0
    6.9527   48.8616   31.7190 H   0  0  0  0  0  0  0  0  0  0  0  0
    7.0962   47.9149   30.2053 H   0  0  0  0  0  0  0  0  0  0  0  0
    8.6269   50.5535   32.0505 H   0  0  0  0  0  0  0  0  0  0  0  0
    9.5947   47.1423   29.5914 H   0  0  0  0  0  0  0  0  0  0  0  0
   10.8445   51.5216   31.5631 H   0  0  0  0  0  0  0  0  0  0  0  0
   11.8107   48.1270   29.1164 H   0  0  0  0  0  0  0  0  0  0  0  0
   12.4397   50.3145   30.0990 H   0  0  0  0  0  0  0  0  0  0  0  0
   11.3992   41.5455   31.4737 H   0  0  0  0  0  0  0  0  0  0  0  0
    9.8307   40.7396   31.7563 H   0  0  0  0  0  0  0  0  0  0  0  0
   11.6989   39.5091   30.3489 H   0  0  0  0  0  0  0  0  0  0  0  0
   10.1130   38.2589   32.6664 H   0  0  0  0  0  0  0  0  0  0  0  0
   13.6800   37.4628   31.2265 H   0  0  0  0  0  0  0  0  0  0  0  0
    8.8952   38.6909   30.8891 H   0  0  0  0  0  0  0  0  0  0  0  0
   11.2830   36.3060   32.4929 H   0  0  0  0  0  0  0  0  0  0  0  0
   11.8859   36.9589   29.7593 H   0  0  0  0  0  0  0  0  0  0  0  0
   12.3360   38.3600   34.7442 H   0  0  0  0  0  0  0  0  0  0  0  0
   16.7572   34.1793   32.4621 H   0  0  0  0  0  0  0  0  0  0  0  0
   15.3528   35.7357   37.5140 H   0  0  0  0  0  0  0  0  0  0  0  0
   16.6362   34.5318   37.1416 H   0  0  0  0  0  0  0  0  0  0  0  0
  1  2  2  0
  1  3  1  0
  3  4  1  0
  4  5  1  0
  6  1  1  0
  7  6  1  0
  6  8  1  0
  8  9  1  0
  9 10  1  0
  9 11  2  0
 10 12  1  0
 12 13  1  0
 13 14  2  0
 15 13  1  0
 14 16  1  0
 17 15  2  0
 16 18  2  0
 18 17  1  0
  4 19  2  0
  4 20  1  0
 21 20  1  0
 21 22  1  0
 22 23  1  0
 22 24  1  0
 23 25  1  0
 24 26  1  0
 24 27  1  0
 27 25  1  0
 25 28  1  0
 27 29  1  0
 30 28  1  0
 31 28  1  0
 32 30  2  0
 30 33  1  0
 34 31  2  0
 35 32  1  0
 33 36  2  0
 33 34  1  0
 37 35  2  0
 37 36  1  0
 36 38  1  0
  6 39  1  6
  7 40  1  0
  7 41  1  0
  8 42  1  0
  8 43  1  0
 12 44  1  0
 12 45  1  0
 14 46  1  0
 15 47  1  0
 16 48  1  0
 17 49  1  0
 18 50  1  0
 21 51  1  0
 21 52  1  0
 22 53  1  0
 24 54  1  0
 25 55  1  0
 26 56  1  0
 27 57  1  0
 29 58  1  0
 31 59  1  0
 35 60  1  0
 38 61  1  0
 38 62  1  0
M  CHG  1   5  -1
M  END
>  <EmbedRMS>  (284) 
0.08801623091112004

$$$$

     RDKit          3D

 62 65  0  0  0  0  0  0  0  0999 V2000
   10.2862   43.7710   33.8098 C   0  0  0  0  0  0  0  0  0  0  0  0
   11.4100   43.5818   34.3615 O   0  0  0  0  0  0  0  0  0  0  0  0
    9.3668   42.7309   33.7018 O   0  0  0  0  0  0  0  0  0  0  0  0
    9.8849   41.2328   34.2832 P   0  0  0  0  0  5  0  0  0  0  0  0
   10.3662   41.4673   35.8738 O   0  0  0  0  0  1  0  0  0  0  0  0
    9.9608   45.1122   33.2472 C   0  0  2  0  0  0  0  0  0  0  0  0
   11.0655   46.0481   33.4749 N   0  0  0  0  0  0  0  0  0  0  0  0
    8.6636   45.6562   33.8694 C   0  0  0  0  0  0  0  0  0  0  0  0
    8.2940   46.9739   33.2641 C   0  0  0  0  0  0  0  0  0  0  0  0
    8.7498   48.1545   33.8605 O   0  0  0  0  0  0  0  0  0  0  0  0
    7.6226   47.0071   32.1967 O   0  0  0  0  0  0  0  0  0  0  0  0
    8.6187   49.4369   33.2522 C   0  0  0  0  0  0  0  0  0  0  0  0
    9.5447   49.5478   32.0717 C   0  0  0  0  0  0  0  0  0  0  0  0
   10.9348   49.4998   32.2659 C   0  0  0  0  0  0  0  0  0  0  0  0
    9.0344   49.6649   30.7680 C   0  0  0  0  0  0  0  0  0  0  0  0
   11.8018   49.5737   31.1714 C   0  0  0  0  0  0  0  0  0  0  0  0
    9.9050   49.7397   29.6761 C   0  0  0  0  0  0  0  0  0  0  0  0
   11.2874   49.6944   29.8775 C   0  0  0  0  0  0  0  0  0  0  0  0
    8.8071   40.1904   34.2077 O   0  0  0  0  0  0  0  0  0  0  0  0
   11.2367   40.7901   33.3660 O   0  0  0  0  0  0  0  0  0  0  0  0
   10.9142   40.6849   31.9931 C   0  0  0  0  0  0  0  0  0  0  0  0
   11.5166   39.3773   31.4393 C   0  0  0  0  0  0  0  0  0  0  0  0
   12.7471   39.0855   32.0739 O   0  0  0  0  0  0  0  0  0  0  0  0
   10.6047   38.1867   31.6669 C   0  0  0  0  0  0  0  0  0  0  0  0
   12.9345   37.6791   32.0282 C   0  0  0  0  0  0  0  0  0  0  0  0
    9.6378   38.0917   30.6488 O   0  0  0  0  0  0  0  0  0  0  0  0
   11.5761   37.0129   31.7056 C   0  0  0  0  0  0  0  0  0  0  0  0
   13.4909   37.2177   33.3233 N   0  0  0  0  0  0  0  0  0  0  0  0
   11.6234   36.3371   30.4684 O   0  0  0  0  0  0  0  0  0  0  0  0
   14.4765   36.3272   33.5727 C   0  0  0  0  0  0  0  0  0  0  0  0
   13.1182   37.6316   34.5685 C   0  0  0  0  0  0  0  0  0  0  0  0
   15.2066   35.6137   32.6739 N   0  0  0  0  0  0  0  0  0  0  0  0
   14.6736   36.2276   34.9182 C   0  0  0  0  0  0  0  0  0  0  0  0
   13.8227   37.0457   35.5781 N   0  0  0  0  0  0  0  0  0  0  0  0
   16.1638   34.7593   33.1547 C   0  0  0  0  0  0  0  0  0  0  0  0
   15.6517   35.3492   35.4131 C   0  0  0  0  0  0  0  0  0  0  0  0
   16.3792   34.6309   34.5043 N   0  0  0  0  0  0  0  0  0  0  0  0
   15.9002   35.1934   36.8090 N   0  0  0  0  0  0  0  0  0  0  0  0
    9.8109   44.9954   32.1508 H   0  0  0  0  0  0  0  0  0  0  0  0
   11.9222   45.7038   32.9823 H   0  0  0  0  0  0  0  0  0  0  0  0
   11.2748   46.1197   34.4982 H   0  0  0  0  0  0  0  0  0  0  0  0
    7.8308   44.9385   33.7009 H   0  0  0  0  0  0  0  0  0  0  0  0
    8.7894   45.7796   34.9674 H   0  0  0  0  0  0  0  0  0  0  0  0
    8.8922   50.2135   33.9973 H   0  0  0  0  0  0  0  0  0  0  0  0
    7.5594   49.6131   32.9628 H   0  0  0  0  0  0  0  0  0  0  0  0
   11.3446   49.3994   33.2635 H   0  0  0  0  0  0  0  0  0  0  0  0
    7.9656   49.6939   30.5958 H   0  0  0  0  0  0  0  0  0  0  0  0
   12.8723   49.5351   31.3262 H   0  0  0  0  0  0  0  0  0  0  0  0
    9.5078   49.8300   28.6733 H   0  0  0  0  0  0  0  0  0  0  0  0
   11.9596   49.7508   29.0311 H   0  0  0  0  0  0  0  0  0  0  0  0
    9.8242   40.7213   31.7563 H   0  0  0  0  0  0  0  0  0  0  0  0
   11.3873   41.5415   31.4671 H   0  0  0  0  0  0  0  0  0  0  0  0
   11.6986   39.5013   30.3467 H   0  0  0  0  0  0  0  0  0  0  0  0
   10.1095   38.2771   32.6629 H   0  0  0  0  0  0  0  0  0  0  0  0
   13.6672   37.4545   31.2213 H   0  0  0  0  0  0  0  0  0  0  0  0
    8.9779   37.4156   30.9533 H   0  0  0  0  0  0  0  0  0  0  0  0
   11.2861   36.3041   32.5176 H   0  0  0  0  0  0  0  0  0  0  0  0
   10.8690   35.6918   30.4657 H   0  0  0  0  0  0  0  0  0  0  0  0
   12.3356   38.3587   34.7439 H   0  0  0  0  0  0  0  0  0  0  0  0
   16.7572   34.1786   32.4621 H   0  0  0  0  0  0  0  0  0  0  0  0
   15.3530   35.7358   37.5138 H   0  0  0  0  0  0  0  0  0  0  0  0
   16.6361   34.5315   37.1415 H   0  0  0  0  0  0  0  0  0  0  0  0
  1  2  2  0
  1  3  1  0
  3  4  1  0
  4  5  1  0
  6  1  1  0
  7  6  1  0
  6  8  1  0
  8  9  1  0
  9 10  1  0
  9 11  2  0
 10 12  1  0
 12 13  1  0
 13 14  2  0
 15 13  1  0
 14 16  1  0
 17 15  2  0
 16 18  2  0
 18 17  1  0
  4 19  2  0
  4 20  1  0
 21 20  1  0
 21 22  1  0
 22 23  1  0
 22 24  1  0
 23 25  1  0
 24 26  1  0
 24 27  1  0
 27 25  1  0
 25 28  1  0
 27 29  1  0
 30 28  1  0
 31 28  1  0
 32 30  2  0
 30 33  1  0
 34 31  2  0
 35 32  1  0
 33 36  2  0
 33 34  1  0
 37 35  2  0
 37 36  1  0
 36 38  1  0
  6 39  1  6
  7 40  1  0
  7 41  1  0
  8 42  1  0
  8 43  1  0
 12 44  1  0
 12 45  1  0
 14 46  1  0
 15 47  1  0
 16 48  1  0
 17 49  1  0
 18 50  1  0
 21 51  1  0
 21 52  1  0
 22 53  1  0
 24 54  1  0
 25 55  1  0
 26 56  1  0
 27 57  1  0
 29 58  1  0
 31 59  1  0
 35 60  1  0
 38 61  1  0
 38 62  1  0
M  CHG  1   5  -1
M  END
>  <EmbedRMS>  (285) 
0.08951308726645521

$$$$

     RDKit          3D

 62 65  0  0  0  0  0  0  0  0999 V2000
   10.2860   43.7718   33.8043 C   0  0  0  0  0  0  0  0  0  0  0  0
   11.4113   43.5870   34.3545 O   0  0  0  0  0  0  0  0  0  0  0  0
    9.3668   42.7312   33.7003 O   0  0  0  0  0  0  0  0  0  0  0  0
    9.8850   41.2345   34.2846 P   0  0  0  0  0  5  0  0  0  0  0  0
   10.3657   41.4707   35.8749 O   0  0  0  0  0  1  0  0  0  0  0  0
    9.9566   45.1117   33.2469 C   0  0  2  0  0  0  0  0  0  0  0  0
   11.0673   46.0363   33.4855 N   0  0  0  0  0  0  0  0  0  0  0  0
    8.6226   45.6580   33.8050 C   0  0  0  0  0  0  0  0  0  0  0  0
    8.6165   45.7718   35.3012 C   0  0  0  0  0  0  0  0  0  0  0  0
    8.4021   44.6262   36.0760 O   0  0  0  0  0  0  0  0  0  0  0  0
    8.8338   46.8882   35.8465 O   0  0  0  0  0  0  0  0  0  0  0  0
    8.3871   44.6347   37.5012 C   0  0  0  0  0  0  0  0  0  0  0  0
    7.1307   45.2879   38.0079 C   0  0  0  0  0  0  0  0  0  0  0  0
    5.8880   44.6651   37.8080 C   0  0  0  0  0  0  0  0  0  0  0  0
    7.1814   46.5329   38.6571 C   0  0  0  0  0  0  0  0  0  0  0  0
    4.7137   45.2754   38.2596 C   0  0  0  0  0  0  0  0  0  0  0  0
    6.0046   47.1399   39.1071 C   0  0  0  0  0  0  0  0  0  0  0  0
    4.7720   46.5115   38.9092 C   0  0  0  0  0  0  0  0  0  0  0  0
    8.8074   40.1917   34.2094 O   0  0  0  0  0  0  0  0  0  0  0  0
   11.2364   40.7908   33.3677 O   0  0  0  0  0  0  0  0  0  0  0  0
   10.9133   40.6860   31.9951 C   0  0  0  0  0  0  0  0  0  0  0  0
   11.5168   39.3798   31.4412 C   0  0  0  0  0  0  0  0  0  0  0  0
   12.7487   39.0887   32.0764 O   0  0  0  0  0  0  0  0  0  0  0  0
   10.6051   38.1876   31.6660 C   0  0  0  0  0  0  0  0  0  0  0  0
   12.9411   37.6829   32.0278 C   0  0  0  0  0  0  0  0  0  0  0  0
    9.6358   38.0931   30.6503 O   0  0  0  0  0  0  0  0  0  0  0  0
   11.5827   37.0180   31.6936 C   0  0  0  0  0  0  0  0  0  0  0  0
   13.4909   37.2177   33.3239 N   0  0  0  0  0  0  0  0  0  0  0  0
   11.6141   36.3180   30.4675 O   0  0  0  0  0  0  0  0  0  0  0  0
   14.4762   36.3270   33.5733 C   0  0  0  0  0  0  0  0  0  0  0  0
   13.1179   37.6316   34.5689 C   0  0  0  0  0  0  0  0  0  0  0  0
   15.2067   35.6140   32.6743 N   0  0  0  0  0  0  0  0  0  0  0  0
   14.6731   36.2272   34.9186 C   0  0  0  0  0  0  0  0  0  0  0  0
   13.8223   37.0456   35.5785 N   0  0  0  0  0  0  0  0  0  0  0  0
   16.1639   34.7595   33.1550 C   0  0  0  0  0  0  0  0  0  0  0  0
   15.6515   35.3491   35.4134 C   0  0  0  0  0  0  0  0  0  0  0  0
   16.3792   34.6310   34.5045 N   0  0  0  0  0  0  0  0  0  0  0  0
   15.9002   35.1933   36.8093 N   0  0  0  0  0  0  0  0  0  0  0  0
    9.8399   44.9888   32.1478 H   0  0  0  0  0  0  0  0  0  0  0  0
   10.8571   46.9422   33.0064 H   0  0  0  0  0  0  0  0  0  0  0  0
   11.1542   46.2382   34.5082 H   0  0  0  0  0  0  0  0  0  0  0  0
    7.7921   44.9862   33.4975 H   0  0  0  0  0  0  0  0  0  0  0  0
    8.4145   46.6533   33.3552 H   0  0  0  0  0  0  0  0  0  0  0  0
    9.2985   45.1419   37.8873 H   0  0  0  0  0  0  0  0  0  0  0  0
    8.4177   43.5848   37.8618 H   0  0  0  0  0  0  0  0  0  0  0  0
    5.8304   43.7093   37.3017 H   0  0  0  0  0  0  0  0  0  0  0  0
    8.1287   47.0340   38.8130 H   0  0  0  0  0  0  0  0  0  0  0  0
    3.7584   44.7909   38.1043 H   0  0  0  0  0  0  0  0  0  0  0  0
    6.0482   48.0986   39.6076 H   0  0  0  0  0  0  0  0  0  0  0  0
    3.8622   46.9831   39.2575 H   0  0  0  0  0  0  0  0  0  0  0  0
   11.3851   41.5435   31.4693 H   0  0  0  0  0  0  0  0  0  0  0  0
    9.8232   40.7209   31.7586 H   0  0  0  0  0  0  0  0  0  0  0  0
   11.6992   39.5068   30.3490 H   0  0  0  0  0  0  0  0  0  0  0  0
   10.1119   38.2721   32.6632 H   0  0  0  0  0  0  0  0  0  0  0  0
   13.6816   37.4634   31.2269 H   0  0  0  0  0  0  0  0  0  0  0  0
    9.0037   37.3828   30.9348 H   0  0  0  0  0  0  0  0  0  0  0  0
   11.2846   36.3041   32.4928 H   0  0  0  0  0  0  0  0  0  0  0  0
   11.8849   36.9591   29.7589 H   0  0  0  0  0  0  0  0  0  0  0  0
   12.3363   38.3599   34.7441 H   0  0  0  0  0  0  0  0  0  0  0  0
   16.7574   34.1791   32.4623 H   0  0  0  0  0  0  0  0  0  0  0  0
   15.3529   35.7355   37.5141 H   0  0  0  0  0  0  0  0  0  0  0  0
   16.6363   34.5317   37.1418 H   0  0  0  0  0  0  0  0  0  0  0  0
  1  2  2  0
  1  3  1  0
  3  4  1  0
  4  5  1  0
  6  1  1  0
  7  6  1  0
  6  8  1  0
  8  9  1  0
  9 10  1  0
  9 11  2  0
 10 12  1  0
 12 13  1  0
 13 14  2  0
 15 13  1  0
 14 16  1  0
 17 15  2  0
 16 18  2  0
 18 17  1  0
  4 19  2  0
  4 20  1  0
 21 20  1  0
 21 22  1  0
 22 23  1  0
 22 24  1  0
 23 25  1  0
 24 26  1  0
 24 27  1  0
 27 25  1  0
 25 28  1  0
 27 29  1  0
 30 28  1  0
 31 28  1  0
 32 30  2  0
 30 33  1  0
 34 31  2  0
 35 32  1  0
 33 36  2  0
 33 34  1  0
 37 35  2  0
 37 36  1  0
 36 38  1  0
  6 39  1  6
  7 40  1  0
  7 41  1  0
  8 42  1  0
  8 43  1  0
 12 44  1  0
 12 45  1  0
 14 46  1  0
 15 47  1  0
 16 48  1  0
 17 49  1  0
 18 50  1  0
 21 51  1  0
 21 52  1  0
 22 53  1  0
 24 54  1  0
 25 55  1  0
 26 56  1  0
 27 57  1  0
 29 58  1  0
 31 59  1  0
 35 60  1  0
 38 61  1  0
 38 62  1  0
M  CHG  1   5  -1
M  END
>  <EmbedRMS>  (286) 
0.08773406653703203

$$$$

     RDKit          3D

 62 65  0  0  0  0  0  0  0  0999 V2000
   10.2800   43.7759   33.8079 C   0  0  0  0  0  0  0  0  0  0  0  0
   11.4058   43.5914   34.3580 O   0  0  0  0  0  0  0  0  0  0  0  0
    9.3678   42.7297   33.6980 O   0  0  0  0  0  0  0  0  0  0  0  0
    9.8866   41.2341   34.2840 P   0  0  0  0  0  5  0  0  0  0  0  0
   10.3665   41.4708   35.8744 O   0  0  0  0  0  1  0  0  0  0  0  0
    9.9519   45.1175   33.2460 C   0  0  2  0  0  0  0  0  0  0  0  0
   11.0762   46.0247   33.4836 N   0  0  0  0  0  0  0  0  0  0  0  0
    8.6556   45.6923   33.8607 C   0  0  0  0  0  0  0  0  0  0  0  0
    7.4314   45.0260   33.3108 C   0  0  0  0  0  0  0  0  0  0  0  0
    6.8354   43.9815   34.0225 O   0  0  0  0  0  0  0  0  0  0  0  0
    6.9666   45.3929   32.1970 O   0  0  0  0  0  0  0  0  0  0  0  0
    5.6780   43.2967   33.5571 C   0  0  0  0  0  0  0  0  0  0  0  0
    5.3628   42.1673   34.4932 C   0  0  0  0  0  0  0  0  0  0  0  0
    4.7980   42.4342   35.7508 C   0  0  0  0  0  0  0  0  0  0  0  0
    5.6776   40.8429   34.1459 C   0  0  0  0  0  0  0  0  0  0  0  0
    4.5370   41.3882   36.6416 C   0  0  0  0  0  0  0  0  0  0  0  0
    5.4162   39.7999   35.0400 C   0  0  0  0  0  0  0  0  0  0  0  0
    4.8451   40.0720   36.2862 C   0  0  0  0  0  0  0  0  0  0  0  0
    8.8114   40.1892   34.2092 O   0  0  0  0  0  0  0  0  0  0  0  0
   11.2380   40.7906   33.3678 O   0  0  0  0  0  0  0  0  0  0  0  0
   10.9151   40.6882   31.9950 C   0  0  0  0  0  0  0  0  0  0  0  0
   11.5258   39.3871   31.4366 C   0  0  0  0  0  0  0  0  0  0  0  0
   12.7490   39.0893   32.0819 O   0  0  0  0  0  0  0  0  0  0  0  0
   10.6120   38.1894   31.6463 C   0  0  0  0  0  0  0  0  0  0  0  0
   12.9372   37.6827   32.0301 C   0  0  0  0  0  0  0  0  0  0  0  0
    9.6147   38.0839   30.6540 O   0  0  0  0  0  0  0  0  0  0  0  0
   11.5791   37.0137   31.7015 C   0  0  0  0  0  0  0  0  0  0  0  0
   13.4906   37.2170   33.3242 N   0  0  0  0  0  0  0  0  0  0  0  0
   11.6214   36.3253   30.4726 O   0  0  0  0  0  0  0  0  0  0  0  0
   14.4763   36.3267   33.5731 C   0  0  0  0  0  0  0  0  0  0  0  0
   13.1181   37.6308   34.5694 C   0  0  0  0  0  0  0  0  0  0  0  0
   15.2065   35.6137   32.6740 N   0  0  0  0  0  0  0  0  0  0  0  0
   14.6735   36.2270   34.9185 C   0  0  0  0  0  0  0  0  0  0  0  0
   13.8228   37.0451   35.5787 N   0  0  0  0  0  0  0  0  0  0  0  0
   16.1639   34.7593   33.1547 C   0  0  0  0  0  0  0  0  0  0  0  0
   15.6518   35.3489   35.4132 C   0  0  0  0  0  0  0  0  0  0  0  0
   16.3794   34.6308   34.5042 N   0  0  0  0  0  0  0  0  0  0  0  0
   15.9006   35.1931   36.8090 N   0  0  0  0  0  0  0  0  0  0  0  0
    9.8225   45.0051   32.1462 H   0  0  0  0  0  0  0  0  0  0  0  0
   11.1085   46.2860   34.4971 H   0  0  0  0  0  0  0  0  0  0  0  0
   10.9162   46.9051   32.9415 H   0  0  0  0  0  0  0  0  0  0  0  0
    8.5862   46.7790   33.6359 H   0  0  0  0  0  0  0  0  0  0  0  0
    8.6738   45.5854   34.9676 H   0  0  0  0  0  0  0  0  0  0  0  0
    5.8578   42.9120   32.5290 H   0  0  0  0  0  0  0  0  0  0  0  0
    4.8188   44.0010   33.5169 H   0  0  0  0  0  0  0  0  0  0  0  0
    4.5635   43.4511   36.0408 H   0  0  0  0  0  0  0  0  0  0  0  0
    6.1282   40.6177   33.1872 H   0  0  0  0  0  0  0  0  0  0  0  0
    4.0994   41.5984   37.6090 H   0  0  0  0  0  0  0  0  0  0  0  0
    5.6601   38.7811   34.7679 H   0  0  0  0  0  0  0  0  0  0  0  0
    4.6447   39.2638   36.9776 H   0  0  0  0  0  0  0  0  0  0  0  0
    9.8246   40.7176   31.7590 H   0  0  0  0  0  0  0  0  0  0  0  0
   11.3815   41.5503   31.4721 H   0  0  0  0  0  0  0  0  0  0  0  0
   11.7287   39.5287   30.3505 H   0  0  0  0  0  0  0  0  0  0  0  0
   10.1137   38.2719   32.6381 H   0  0  0  0  0  0  0  0  0  0  0  0
   13.6724   37.4636   31.2240 H   0  0  0  0  0  0  0  0  0  0  0  0
   10.0532   38.1086   29.7640 H   0  0  0  0  0  0  0  0  0  0  0  0
   11.2644   36.3135   32.5108 H   0  0  0  0  0  0  0  0  0  0  0  0
   12.1546   35.5032   30.6316 H   0  0  0  0  0  0  0  0  0  0  0  0
   12.3360   38.3585   34.7451 H   0  0  0  0  0  0  0  0  0  0  0  0
   16.7573   34.1789   32.4619 H   0  0  0  0  0  0  0  0  0  0  0  0
   16.6366   34.5314   37.1415 H   0  0  0  0  0  0  0  0  0  0  0  0
   15.3533   35.7353   37.5139 H   0  0  0  0  0  0  0  0  0  0  0  0
  1  2  2  0
  1  3  1  0
  3  4  1  0
  4  5  1  0
  6  1  1  0
  7  6  1  0
  6  8  1  0
  8  9  1  0
  9 10  1  0
  9 11  2  0
 10 12  1  0
 12 13  1  0
 13 14  2  0
 15 13  1  0
 14 16  1  0
 17 15  2  0
 16 18  2  0
 18 17  1  0
  4 19  2  0
  4 20  1  0
 21 20  1  0
 21 22  1  0
 22 23  1  0
 22 24  1  0
 23 25  1  0
 24 26  1  0
 24 27  1  0
 27 25  1  0
 25 28  1  0
 27 29  1  0
 30 28  1  0
 31 28  1  0
 32 30  2  0
 30 33  1  0
 34 31  2  0
 35 32  1  0
 33 36  2  0
 33 34  1  0
 37 35  2  0
 37 36  1  0
 36 38  1  0
  6 39  1  6
  7 40  1  0
  7 41  1  0
  8 42  1  0
  8 43  1  0
 12 44  1  0
 12 45  1  0
 14 46  1  0
 15 47  1  0
 16 48  1  0
 17 49  1  0
 18 50  1  0
 21 51  1  0
 21 52  1  0
 22 53  1  0
 24 54  1  0
 25 55  1  0
 26 56  1  0
 27 57  1  0
 29 58  1  0
 31 59  1  0
 35 60  1  0
 38 61  1  0
 38 62  1  0
M  CHG  1   5  -1
M  END
>  <EmbedRMS>  (287) 
0.08764931881811903

$$$$

     RDKit          3D

 62 65  0  0  0  0  0  0  0  0999 V2000
   10.2811   43.7751   33.8077 C   0  0  0  0  0  0  0  0  0  0  0  0
   11.4039   43.5912   34.3641 O   0  0  0  0  0  0  0  0  0  0  0  0
    9.3696   42.7286   33.6947 O   0  0  0  0  0  0  0  0  0  0  0  0
    9.8868   41.2336   34.2836 P   0  0  0  0  0  5  0  0  0  0  0  0
   10.3647   41.4711   35.8745 O   0  0  0  0  0  1  0  0  0  0  0  0
    9.9454   45.1232   33.2615 C   0  0  2  0  0  0  0  0  0  0  0  0
   11.0810   46.0237   33.4688 N   0  0  0  0  0  0  0  0  0  0  0  0
    8.6963   45.7026   33.9594 C   0  0  0  0  0  0  0  0  0  0  0  0
    7.4379   45.0149   33.5247 C   0  0  0  0  0  0  0  0  0  0  0  0
    6.8960   44.0018   34.3200 O   0  0  0  0  0  0  0  0  0  0  0  0
    6.8945   45.3357   32.4324 O   0  0  0  0  0  0  0  0  0  0  0  0
    5.7083   43.3009   33.9691 C   0  0  0  0  0  0  0  0  0  0  0  0
    5.4606   42.2145   34.9740 C   0  0  0  0  0  0  0  0  0  0  0  0
    5.6960   40.8690   34.6456 C   0  0  0  0  0  0  0  0  0  0  0  0
    5.0354   42.5427   36.2715 C   0  0  0  0  0  0  0  0  0  0  0  0
    5.4976   39.8665   35.6002 C   0  0  0  0  0  0  0  0  0  0  0  0
    4.8367   41.5371   37.2228 C   0  0  0  0  0  0  0  0  0  0  0  0
    5.0673   40.2000   36.8874 C   0  0  0  0  0  0  0  0  0  0  0  0
    8.8115   40.1889   34.2075 O   0  0  0  0  0  0  0  0  0  0  0  0
   11.2395   40.7903   33.3696 O   0  0  0  0  0  0  0  0  0  0  0  0
   10.9195   40.6904   31.9961 C   0  0  0  0  0  0  0  0  0  0  0  0
   11.5176   39.3822   31.4411 C   0  0  0  0  0  0  0  0  0  0  0  0
   12.7496   39.0890   32.0753 O   0  0  0  0  0  0  0  0  0  0  0  0
   10.6036   38.1900   31.6661 C   0  0  0  0  0  0  0  0  0  0  0  0
   12.9400   37.6832   32.0275 C   0  0  0  0  0  0  0  0  0  0  0  0
    9.6374   38.0787   30.6478 O   0  0  0  0  0  0  0  0  0  0  0  0
   11.5802   37.0203   31.6937 C   0  0  0  0  0  0  0  0  0  0  0  0
   13.4901   37.2176   33.3237 N   0  0  0  0  0  0  0  0  0  0  0  0
   11.6115   36.3193   30.4680 O   0  0  0  0  0  0  0  0  0  0  0  0
   14.4758   36.3271   33.5731 C   0  0  0  0  0  0  0  0  0  0  0  0
   13.1175   37.6317   34.5688 C   0  0  0  0  0  0  0  0  0  0  0  0
   15.2064   35.6141   32.6742 N   0  0  0  0  0  0  0  0  0  0  0  0
   14.6729   36.2274   34.9184 C   0  0  0  0  0  0  0  0  0  0  0  0
   13.8221   37.0457   35.5783 N   0  0  0  0  0  0  0  0  0  0  0  0
   16.1637   34.7597   33.1549 C   0  0  0  0  0  0  0  0  0  0  0  0
   15.6514   35.3493   35.4133 C   0  0  0  0  0  0  0  0  0  0  0  0
   16.3791   34.6312   34.5044 N   0  0  0  0  0  0  0  0  0  0  0  0
   15.9001   35.1935   36.8091 N   0  0  0  0  0  0  0  0  0  0  0  0
    9.7521   45.0286   32.1684 H   0  0  0  0  0  0  0  0  0  0  0  0
   10.8422   46.9593   33.0664 H   0  0  0  0  0  0  0  0  0  0  0  0
   11.8862   45.6778   32.8961 H   0  0  0  0  0  0  0  0  0  0  0  0
    8.5956   46.7827   33.7154 H   0  0  0  0  0  0  0  0  0  0  0  0
    8.8032   45.6244   35.0638 H   0  0  0  0  0  0  0  0  0  0  0  0
    4.8481   44.0050   33.9613 H   0  0  0  0  0  0  0  0  0  0  0  0
    5.8142   42.8724   32.9480 H   0  0  0  0  0  0  0  0  0  0  0  0
    6.0354   40.5956   33.6542 H   0  0  0  0  0  0  0  0  0  0  0  0
    4.8617   43.5762   36.5454 H   0  0  0  0  0  0  0  0  0  0  0  0
    5.6805   38.8313   35.3426 H   0  0  0  0  0  0  0  0  0  0  0  0
    4.5075   41.7948   38.2212 H   0  0  0  0  0  0  0  0  0  0  0  0
    4.9152   39.4230   37.6253 H   0  0  0  0  0  0  0  0  0  0  0  0
   11.4004   41.5452   31.4744 H   0  0  0  0  0  0  0  0  0  0  0  0
    9.8315   40.7397   31.7561 H   0  0  0  0  0  0  0  0  0  0  0  0
   11.6989   39.5089   30.3488 H   0  0  0  0  0  0  0  0  0  0  0  0
   10.1132   38.2591   32.6667 H   0  0  0  0  0  0  0  0  0  0  0  0
   13.6799   37.4623   31.2265 H   0  0  0  0  0  0  0  0  0  0  0  0
    8.8946   38.6903   30.8903 H   0  0  0  0  0  0  0  0  0  0  0  0
   11.2829   36.3060   32.4930 H   0  0  0  0  0  0  0  0  0  0  0  0
   11.8855   36.9590   29.7593 H   0  0  0  0  0  0  0  0  0  0  0  0
   12.3359   38.3599   34.7441 H   0  0  0  0  0  0  0  0  0  0  0  0
   16.7572   34.1793   32.4621 H   0  0  0  0  0  0  0  0  0  0  0  0
   16.6362   34.5318   37.1416 H   0  0  0  0  0  0  0  0  0  0  0  0
   15.3528   35.7357   37.5140 H   0  0  0  0  0  0  0  0  0  0  0  0
  1  2  2  0
  1  3  1  0
  3  4  1  0
  4  5  1  0
  6  1  1  0
  7  6  1  0
  6  8  1  0
  8  9  1  0
  9 10  1  0
  9 11  2  0
 10 12  1  0
 12 13  1  0
 13 14  2  0
 15 13  1  0
 14 16  1  0
 17 15  2  0
 16 18  2  0
 18 17  1  0
  4 19  2  0
  4 20  1  0
 21 20  1  0
 21 22  1  0
 22 23  1  0
 22 24  1  0
 23 25  1  0
 24 26  1  0
 24 27  1  0
 27 25  1  0
 25 28  1  0
 27 29  1  0
 30 28  1  0
 31 28  1  0
 32 30  2  0
 30 33  1  0
 34 31  2  0
 35 32  1  0
 33 36  2  0
 33 34  1  0
 37 35  2  0
 37 36  1  0
 36 38  1  0
  6 39  1  6
  7 40  1  0
  7 41  1  0
  8 42  1  0
  8 43  1  0
 12 44  1  0
 12 45  1  0
 14 46  1  0
 15 47  1  0
 16 48  1  0
 17 49  1  0
 18 50  1  0
 21 51  1  0
 21 52  1  0
 22 53  1  0
 24 54  1  0
 25 55  1  0
 26 56  1  0
 27 57  1  0
 29 58  1  0
 31 59  1  0
 35 60  1  0
 38 61  1  0
 38 62  1  0
M  CHG  1   5  -1
M  END
>  <EmbedRMS>  (288) 
0.0885590291541593

$$$$

     RDKit          3D

 62 65  0  0  0  0  0  0  0  0999 V2000
   10.2783   43.7765   33.8111 C   0  0  0  0  0  0  0  0  0  0  0  0
   11.4055   43.5902   34.3579 O   0  0  0  0  0  0  0  0  0  0  0  0
    9.3647   42.7311   33.7010 O   0  0  0  0  0  0  0  0  0  0  0  0
    9.8857   41.2349   34.2851 P   0  0  0  0  0  5  0  0  0  0  0  0
   10.3668   41.4714   35.8751 O   0  0  0  0  0  1  0  0  0  0  0  0
    9.9470   45.1214   33.2603 C   0  0  2  0  0  0  0  0  0  0  0  0
   11.0853   46.0189   33.4678 N   0  0  0  0  0  0  0  0  0  0  0  0
    8.6800   45.7113   33.9202 C   0  0  0  0  0  0  0  0  0  0  0  0
    7.4232   44.9865   33.5392 C   0  0  0  0  0  0  0  0  0  0  0  0
    7.1964   44.6365   32.2025 O   0  0  0  0  0  0  0  0  0  0  0  0
    6.5503   44.7574   34.4201 O   0  0  0  0  0  0  0  0  0  0  0  0
    5.9673   44.0865   31.7322 C   0  0  0  0  0  0  0  0  0  0  0  0
    5.7673   42.6897   32.2553 C   0  0  0  0  0  0  0  0  0  0  0  0
    4.7888   42.4254   33.2289 C   0  0  0  0  0  0  0  0  0  0  0  0
    6.5677   41.6384   31.7803 C   0  0  0  0  0  0  0  0  0  0  0  0
    4.6103   41.1262   33.7134 C   0  0  0  0  0  0  0  0  0  0  0  0
    6.3774   40.3388   32.2602 C   0  0  0  0  0  0  0  0  0  0  0  0
    5.4026   40.0832   33.2278 C   0  0  0  0  0  0  0  0  0  0  0  0
    8.8113   40.1893   34.2126 O   0  0  0  0  0  0  0  0  0  0  0  0
   11.2381   40.7920   33.3696 O   0  0  0  0  0  0  0  0  0  0  0  0
   10.9179   40.6918   31.9964 C   0  0  0  0  0  0  0  0  0  0  0  0
   11.5173   39.3837   31.4407 C   0  0  0  0  0  0  0  0  0  0  0  0
   12.7485   39.0899   32.0766 O   0  0  0  0  0  0  0  0  0  0  0  0
   10.6026   38.1903   31.6617 C   0  0  0  0  0  0  0  0  0  0  0  0
   12.9394   37.6841   32.0282 C   0  0  0  0  0  0  0  0  0  0  0  0
    9.6428   38.0736   30.6386 O   0  0  0  0  0  0  0  0  0  0  0  0
   11.5799   37.0211   31.6944 C   0  0  0  0  0  0  0  0  0  0  0  0
   13.4900   37.2180   33.3239 N   0  0  0  0  0  0  0  0  0  0  0  0
   11.6129   36.3172   30.4702 O   0  0  0  0  0  0  0  0  0  0  0  0
   14.4757   36.3273   33.5731 C   0  0  0  0  0  0  0  0  0  0  0  0
   13.1175   37.6318   34.5691 C   0  0  0  0  0  0  0  0  0  0  0  0
   15.2062   35.6144   32.6741 N   0  0  0  0  0  0  0  0  0  0  0  0
   14.6729   36.2275   34.9185 C   0  0  0  0  0  0  0  0  0  0  0  0
   13.8221   37.0457   35.5785 N   0  0  0  0  0  0  0  0  0  0  0  0
   16.1635   34.7598   33.1548 C   0  0  0  0  0  0  0  0  0  0  0  0
   15.6513   35.3493   35.4132 C   0  0  0  0  0  0  0  0  0  0  0  0
   16.3790   34.6312   34.5042 N   0  0  0  0  0  0  0  0  0  0  0  0
   15.9001   35.1934   36.8090 N   0  0  0  0  0  0  0  0  0  0  0  0
    9.7832   45.0139   32.1652 H   0  0  0  0  0  0  0  0  0  0  0  0
   11.1568   46.2715   34.4815 H   0  0  0  0  0  0  0  0  0  0  0  0
   10.9137   46.9050   32.9388 H   0  0  0  0  0  0  0  0  0  0  0  0
    8.5613   46.7698   33.6040 H   0  0  0  0  0  0  0  0  0  0  0  0
    8.7971   45.7043   35.0269 H   0  0  0  0  0  0  0  0  0  0  0  0
    5.9948   44.0556   30.6225 H   0  0  0  0  0  0  0  0  0  0  0  0
    5.1244   44.7525   32.0201 H   0  0  0  0  0  0  0  0  0  0  0  0
    4.1655   43.2231   33.6133 H   0  0  0  0  0  0  0  0  0  0  0  0
    7.3334   41.8252   31.0374 H   0  0  0  0  0  0  0  0  0  0  0  0
    3.8561   40.9278   34.4639 H   0  0  0  0  0  0  0  0  0  0  0  0
    6.9886   39.5291   31.8881 H   0  0  0  0  0  0  0  0  0  0  0  0
    5.2622   39.0773   33.6018 H   0  0  0  0  0  0  0  0  0  0  0  0
    9.8299   40.7432   31.7575 H   0  0  0  0  0  0  0  0  0  0  0  0
   11.3984   41.5469   31.4748 H   0  0  0  0  0  0  0  0  0  0  0  0
   11.7005   39.5119   30.3490 H   0  0  0  0  0  0  0  0  0  0  0  0
   10.1024   38.2603   32.6566 H   0  0  0  0  0  0  0  0  0  0  0  0
   13.6793   37.4641   31.2269 H   0  0  0  0  0  0  0  0  0  0  0  0
    8.9528   38.7630   30.8129 H   0  0  0  0  0  0  0  0  0  0  0  0
   11.2811   36.3089   32.4950 H   0  0  0  0  0  0  0  0  0  0  0  0
   11.8890   36.9549   29.7605 H   0  0  0  0  0  0  0  0  0  0  0  0
   12.3359   38.3601   34.7446 H   0  0  0  0  0  0  0  0  0  0  0  0
   16.7570   34.1795   32.4619 H   0  0  0  0  0  0  0  0  0  0  0  0
   16.6362   34.5317   37.1414 H   0  0  0  0  0  0  0  0  0  0  0  0
   15.3529   35.7356   37.5139 H   0  0  0  0  0  0  0  0  0  0  0  0
  1  2  2  0
  1  3  1  0
  3  4  1  0
  4  5  1  0
  6  1  1  0
  7  6  1  0
  6  8  1  0
  8  9  1  0
  9 10  1  0
  9 11  2  0
 10 12  1  0
 12 13  1  0
 13 14  2  0
 15 13  1  0
 14 16  1  0
 17 15  2  0
 16 18  2  0
 18 17  1  0
  4 19  2  0
  4 20  1  0
 21 20  1  0
 21 22  1  0
 22 23  1  0
 22 24  1  0
 23 25  1  0
 24 26  1  0
 24 27  1  0
 27 25  1  0
 25 28  1  0
 27 29  1  0
 30 28  1  0
 31 28  1  0
 32 30  2  0
 30 33  1  0
 34 31  2  0
 35 32  1  0
 33 36  2  0
 33 34  1  0
 37 35  2  0
 37 36  1  0
 36 38  1  0
  6 39  1  6
  7 40  1  0
  7 41  1  0
  8 42  1  0
  8 43  1  0
 12 44  1  0
 12 45  1  0
 14 46  1  0
 15 47  1  0
 16 48  1  0
 17 49  1  0
 18 50  1  0
 21 51  1  0
 21 52  1  0
 22 53  1  0
 24 54  1  0
 25 55  1  0
 26 56  1  0
 27 57  1  0
 29 58  1  0
 31 59  1  0
 35 60  1  0
 38 61  1  0
 38 62  1  0
M  CHG  1   5  -1
M  END
>  <EmbedRMS>  (289) 
0.08819323542358334

$$$$

     RDKit          3D

 62 65  0  0  0  0  0  0  0  0999 V2000
   10.2872   43.7712   33.8023 C   0  0  0  0  0  0  0  0  0  0  0  0
   11.4094   43.5878   34.3593 O   0  0  0  0  0  0  0  0  0  0  0  0
    9.3680   42.7306   33.6980 O   0  0  0  0  0  0  0  0  0  0  0  0
    9.8852   41.2342   34.2841 P   0  0  0  0  0  5  0  0  0  0  0  0
   10.3653   41.4711   35.8746 O   0  0  0  0  0  1  0  0  0  0  0  0
    9.9520   45.1155   33.2556 C   0  0  2  0  0  0  0  0  0  0  0  0
   11.0707   46.0335   33.4777 N   0  0  0  0  0  0  0  0  0  0  0  0
    8.6623   45.6648   33.8989 C   0  0  0  0  0  0  0  0  0  0  0  0
    8.7965   45.8398   35.3827 C   0  0  0  0  0  0  0  0  0  0  0  0
    8.5630   44.7475   36.2257 O   0  0  0  0  0  0  0  0  0  0  0  0
    9.1585   46.9528   35.8528 O   0  0  0  0  0  0  0  0  0  0  0  0
    8.6786   44.8136   37.6449 C   0  0  0  0  0  0  0  0  0  0  0  0
    7.5326   45.5935   38.2283 C   0  0  0  0  0  0  0  0  0  0  0  0
    7.7460   46.8543   38.8106 C   0  0  0  0  0  0  0  0  0  0  0  0
    6.2294   45.0738   38.1685 C   0  0  0  0  0  0  0  0  0  0  0  0
    6.6700   47.5791   39.3328 C   0  0  0  0  0  0  0  0  0  0  0  0
    5.1562   45.8017   38.6920 C   0  0  0  0  0  0  0  0  0  0  0  0
    5.3764   47.0530   39.2744 C   0  0  0  0  0  0  0  0  0  0  0  0
    8.8074   40.1916   34.2090 O   0  0  0  0  0  0  0  0  0  0  0  0
   11.2368   40.7893   33.3685 O   0  0  0  0  0  0  0  0  0  0  0  0
   10.9154   40.6881   31.9953 C   0  0  0  0  0  0  0  0  0  0  0  0
   11.5261   39.3871   31.4366 C   0  0  0  0  0  0  0  0  0  0  0  0
   12.7492   39.0893   32.0819 O   0  0  0  0  0  0  0  0  0  0  0  0
   10.6123   38.1893   31.6462 C   0  0  0  0  0  0  0  0  0  0  0  0
   12.9373   37.6827   32.0301 C   0  0  0  0  0  0  0  0  0  0  0  0
    9.6150   38.0839   30.6538 O   0  0  0  0  0  0  0  0  0  0  0  0
   11.5793   37.0136   31.7014 C   0  0  0  0  0  0  0  0  0  0  0  0
   13.4906   37.2169   33.3242 N   0  0  0  0  0  0  0  0  0  0  0  0
   11.6216   36.3252   30.4725 O   0  0  0  0  0  0  0  0  0  0  0  0
   14.4763   36.3266   33.5731 C   0  0  0  0  0  0  0  0  0  0  0  0
   13.1181   37.6308   34.5694 C   0  0  0  0  0  0  0  0  0  0  0  0
   15.2065   35.6137   32.6740 N   0  0  0  0  0  0  0  0  0  0  0  0
   14.6736   36.2270   34.9185 C   0  0  0  0  0  0  0  0  0  0  0  0
   13.8229   37.0451   35.5787 N   0  0  0  0  0  0  0  0  0  0  0  0
   16.1639   34.7593   33.1547 C   0  0  0  0  0  0  0  0  0  0  0  0
   15.6519   35.3489   35.4132 C   0  0  0  0  0  0  0  0  0  0  0  0
   16.3795   34.6308   34.5042 N   0  0  0  0  0  0  0  0  0  0  0  0
   15.9006   35.1931   36.8090 N   0  0  0  0  0  0  0  0  0  0  0  0
    9.7778   45.0094   32.1612 H   0  0  0  0  0  0  0  0  0  0  0  0
   11.8805   45.7138   32.8967 H   0  0  0  0  0  0  0  0  0  0  0  0
   10.8084   46.9725   33.0984 H   0  0  0  0  0  0  0  0  0  0  0  0
    7.8162   44.9744   33.6912 H   0  0  0  0  0  0  0  0  0  0  0  0
    8.4029   46.6408   33.4337 H   0  0  0  0  0  0  0  0  0  0  0  0
    8.6546   43.7802   38.0507 H   0  0  0  0  0  0  0  0  0  0  0  0
    9.6606   45.2543   37.9253 H   0  0  0  0  0  0  0  0  0  0  0  0
    8.7420   47.2768   38.8585 H   0  0  0  0  0  0  0  0  0  0  0  0
    6.0462   44.1073   37.7153 H   0  0  0  0  0  0  0  0  0  0  0  0
    6.8389   48.5495   39.7814 H   0  0  0  0  0  0  0  0  0  0  0  0
    4.1537   45.3965   38.6446 H   0  0  0  0  0  0  0  0  0  0  0  0
    4.5448   47.6157   39.6784 H   0  0  0  0  0  0  0  0  0  0  0  0
    9.8253   40.7180   31.7582 H   0  0  0  0  0  0  0  0  0  0  0  0
   11.3829   41.5504   31.4735 H   0  0  0  0  0  0  0  0  0  0  0  0
   11.7290   39.5289   30.3505 H   0  0  0  0  0  0  0  0  0  0  0  0
   10.1139   38.2718   32.6380 H   0  0  0  0  0  0  0  0  0  0  0  0
   13.6726   37.4635   31.2240 H   0  0  0  0  0  0  0  0  0  0  0  0
   10.0536   38.1086   29.7639 H   0  0  0  0  0  0  0  0  0  0  0  0
   11.2646   36.3134   32.5107 H   0  0  0  0  0  0  0  0  0  0  0  0
   12.1549   35.5032   30.6315 H   0  0  0  0  0  0  0  0  0  0  0  0
   12.3361   38.3586   34.7450 H   0  0  0  0  0  0  0  0  0  0  0  0
   16.7574   34.1788   32.4619 H   0  0  0  0  0  0  0  0  0  0  0  0
   16.6366   34.5314   37.1415 H   0  0  0  0  0  0  0  0  0  0  0  0
   15.3533   35.7353   37.5139 H   0  0  0  0  0  0  0  0  0  0  0  0
  1  2  2  0
  1  3  1  0
  3  4  1  0
  4  5  1  0
  6  1  1  0
  7  6  1  0
  6  8  1  0
  8  9  1  0
  9 10  1  0
  9 11  2  0
 10 12  1  0
 12 13  1  0
 13 14  2  0
 15 13  1  0
 14 16  1  0
 17 15  2  0
 16 18  2  0
 18 17  1  0
  4 19  2  0
  4 20  1  0
 21 20  1  0
 21 22  1  0
 22 23  1  0
 22 24  1  0
 23 25  1  0
 24 26  1  0
 24 27  1  0
 27 25  1  0
 25 28  1  0
 27 29  1  0
 30 28  1  0
 31 28  1  0
 32 30  2  0
 30 33  1  0
 34 31  2  0
 35 32  1  0
 33 36  2  0
 33 34  1  0
 37 35  2  0
 37 36  1  0
 36 38  1  0
  6 39  1  6
  7 40  1  0
  7 41  1  0
  8 42  1  0
  8 43  1  0
 12 44  1  0
 12 45  1  0
 14 46  1  0
 15 47  1  0
 16 48  1  0
 17 49  1  0
 18 50  1  0
 21 51  1  0
 21 52  1  0
 22 53  1  0
 24 54  1  0
 25 55  1  0
 26 56  1  0
 27 57  1  0
 29 58  1  0
 31 59  1  0
 35 60  1  0
 38 61  1  0
 38 62  1  0
M  CHG  1   5  -1
M  END
>  <EmbedRMS>  (290) 
0.08794308245999674

$$$$

     RDKit          3D

 62 65  0  0  0  0  0  0  0  0999 V2000
   10.2816   43.7736   33.8047 C   0  0  0  0  0  0  0  0  0  0  0  0
   11.4034   43.5898   34.3635 O   0  0  0  0  0  0  0  0  0  0  0  0
    9.3664   42.7296   33.6975 O   0  0  0  0  0  0  0  0  0  0  0  0
    9.8871   41.2343   34.2834 P   0  0  0  0  0  5  0  0  0  0  0  0
   10.3686   41.4717   35.8733 O   0  0  0  0  0  1  0  0  0  0  0  0
    9.9556   45.1157   33.2414 C   0  0  2  0  0  0  0  0  0  0  0  0
   11.0745   46.0281   33.4856 N   0  0  0  0  0  0  0  0  0  0  0  0
    8.6702   45.6799   33.8836 C   0  0  0  0  0  0  0  0  0  0  0  0
    7.4385   45.0518   33.3056 C   0  0  0  0  0  0  0  0  0  0  0  0
    6.7190   44.1137   34.0558 O   0  0  0  0  0  0  0  0  0  0  0  0
    7.0598   45.3817   32.1485 O   0  0  0  0  0  0  0  0  0  0  0  0
    5.5594   43.4376   33.5706 C   0  0  0  0  0  0  0  0  0  0  0  0
    5.9371   42.1171   32.9539 C   0  0  0  0  0  0  0  0  0  0  0  0
    5.6517   40.9137   33.6223 C   0  0  0  0  0  0  0  0  0  0  0  0
    6.5762   42.0715   31.7032 C   0  0  0  0  0  0  0  0  0  0  0  0
    5.9831   39.6867   33.0387 C   0  0  0  0  0  0  0  0  0  0  0  0
    6.9160   40.8427   31.1287 C   0  0  0  0  0  0  0  0  0  0  0  0
    6.6159   39.6514   31.7938 C   0  0  0  0  0  0  0  0  0  0  0  0
    8.8137   40.1884   34.2127 O   0  0  0  0  0  0  0  0  0  0  0  0
   11.2377   40.7915   33.3653 O   0  0  0  0  0  0  0  0  0  0  0  0
   10.9123   40.6843   31.9932 C   0  0  0  0  0  0  0  0  0  0  0  0
   11.5166   39.3776   31.4395 C   0  0  0  0  0  0  0  0  0  0  0  0
   12.7468   39.0872   32.0758 O   0  0  0  0  0  0  0  0  0  0  0  0
   10.6059   38.1853   31.6649 C   0  0  0  0  0  0  0  0  0  0  0  0
   12.9367   37.6814   32.0291 C   0  0  0  0  0  0  0  0  0  0  0  0
    9.6409   38.0882   30.6457 O   0  0  0  0  0  0  0  0  0  0  0  0
   11.5785   37.0137   31.7047 C   0  0  0  0  0  0  0  0  0  0  0  0
   13.4913   37.2184   33.3239 N   0  0  0  0  0  0  0  0  0  0  0  0
   11.6126   36.3385   30.4678 O   0  0  0  0  0  0  0  0  0  0  0  0
   14.4764   36.3273   33.5730 C   0  0  0  0  0  0  0  0  0  0  0  0
   13.1183   37.6318   34.5691 C   0  0  0  0  0  0  0  0  0  0  0  0
   15.2065   35.6140   32.6740 N   0  0  0  0  0  0  0  0  0  0  0  0
   14.6734   36.2274   34.9184 C   0  0  0  0  0  0  0  0  0  0  0  0
   13.8226   37.0456   35.5785 N   0  0  0  0  0  0  0  0  0  0  0  0
   16.1636   34.7594   33.1547 C   0  0  0  0  0  0  0  0  0  0  0  0
   15.6516   35.3491   35.4131 C   0  0  0  0  0  0  0  0  0  0  0  0
   16.3791   34.6309   34.5042 N   0  0  0  0  0  0  0  0  0  0  0  0
   15.9003   35.1932   36.8090 N   0  0  0  0  0  0  0  0  0  0  0  0
    9.8119   45.0125   32.1413 H   0  0  0  0  0  0  0  0  0  0  0  0
   10.8415   46.9595   33.0699 H   0  0  0  0  0  0  0  0  0  0  0  0
   11.9035   45.6883   32.9442 H   0  0  0  0  0  0  0  0  0  0  0  0
    8.6900   45.5317   34.9859 H   0  0  0  0  0  0  0  0  0  0  0  0
    8.6046   46.7748   33.7029 H   0  0  0  0  0  0  0  0  0  0  0  0
    5.0080   44.0628   32.8348 H   0  0  0  0  0  0  0  0  0  0  0  0
    4.8698   43.2765   34.4264 H   0  0  0  0  0  0  0  0  0  0  0  0
    5.1667   40.9229   34.5904 H   0  0  0  0  0  0  0  0  0  0  0  0
    6.8048   42.9827   31.1676 H   0  0  0  0  0  0  0  0  0  0  0  0
    5.7554   38.7633   33.5552 H   0  0  0  0  0  0  0  0  0  0  0  0
    7.4092   40.8138   30.1657 H   0  0  0  0  0  0  0  0  0  0  0  0
    6.8730   38.7013   31.3452 H   0  0  0  0  0  0  0  0  0  0  0  0
    9.8222   40.7175   31.7589 H   0  0  0  0  0  0  0  0  0  0  0  0
   11.3816   41.5417   31.4653 H   0  0  0  0  0  0  0  0  0  0  0  0
   11.6999   39.5025   30.3472 H   0  0  0  0  0  0  0  0  0  0  0  0
   10.1060   38.2751   32.6583 H   0  0  0  0  0  0  0  0  0  0  0  0
   13.6708   37.4598   31.2227 H   0  0  0  0  0  0  0  0  0  0  0  0
    9.0212   37.3626   30.9185 H   0  0  0  0  0  0  0  0  0  0  0  0
   11.2699   36.3055   32.5093 H   0  0  0  0  0  0  0  0  0  0  0  0
   12.1439   35.5131   30.6154 H   0  0  0  0  0  0  0  0  0  0  0  0
   12.3359   38.3592   34.7446 H   0  0  0  0  0  0  0  0  0  0  0  0
   16.7569   34.1788   32.4619 H   0  0  0  0  0  0  0  0  0  0  0  0
   16.6362   34.5314   37.1415 H   0  0  0  0  0  0  0  0  0  0  0  0
   15.3531   35.7356   37.5139 H   0  0  0  0  0  0  0  0  0  0  0  0
  1  2  2  0
  1  3  1  0
  3  4  1  0
  4  5  1  0
  6  1  1  0
  7  6  1  0
  6  8  1  0
  8  9  1  0
  9 10  1  0
  9 11  2  0
 10 12  1  0
 12 13  1  0
 13 14  2  0
 15 13  1  0
 14 16  1  0
 17 15  2  0
 16 18  2  0
 18 17  1  0
  4 19  2  0
  4 20  1  0
 21 20  1  0
 21 22  1  0
 22 23  1  0
 22 24  1  0
 23 25  1  0
 24 26  1  0
 24 27  1  0
 27 25  1  0
 25 28  1  0
 27 29  1  0
 30 28  1  0
 31 28  1  0
 32 30  2  0
 30 33  1  0
 34 31  2  0
 35 32  1  0
 33 36  2  0
 33 34  1  0
 37 35  2  0
 37 36  1  0
 36 38  1  0
  6 39  1  6
  7 40  1  0
  7 41  1  0
  8 42  1  0
  8 43  1  0
 12 44  1  0
 12 45  1  0
 14 46  1  0
 15 47  1  0
 16 48  1  0
 17 49  1  0
 18 50  1  0
 21 51  1  0
 21 52  1  0
 22 53  1  0
 24 54  1  0
 25 55  1  0
 26 56  1  0
 27 57  1  0
 29 58  1  0
 31 59  1  0
 35 60  1  0
 38 61  1  0
 38 62  1  0
M  CHG  1   5  -1
M  END
>  <EmbedRMS>  (291) 
0.08815448766060699

$$$$

     RDKit          3D

 62 65  0  0  0  0  0  0  0  0999 V2000
   10.2801   43.7763   33.8100 C   0  0  0  0  0  0  0  0  0  0  0  0
   11.4063   43.5918   34.3592 O   0  0  0  0  0  0  0  0  0  0  0  0
    9.3681   42.7303   33.6991 O   0  0  0  0  0  0  0  0  0  0  0  0
    9.8869   41.2339   34.2830 P   0  0  0  0  0  5  0  0  0  0  0  0
   10.3676   41.4696   35.8735 O   0  0  0  0  0  1  0  0  0  0  0  0
    9.9509   45.1167   33.2482 C   0  0  2  0  0  0  0  0  0  0  0  0
   11.0763   46.0241   33.4793 N   0  0  0  0  0  0  0  0  0  0  0  0
    8.6571   45.6940   33.8686 C   0  0  0  0  0  0  0  0  0  0  0  0
    7.4164   45.0397   33.3157 C   0  0  0  0  0  0  0  0  0  0  0  0
    6.8618   45.3907   32.0757 O   0  0  0  0  0  0  0  0  0  0  0  0
    6.8700   44.1181   33.9771 O   0  0  0  0  0  0  0  0  0  0  0  0
    7.2532   46.5171   31.2898 C   0  0  0  0  0  0  0  0  0  0  0  0
    6.7413   47.7973   31.8943 C   0  0  0  0  0  0  0  0  0  0  0  0
    5.3843   47.9235   32.2351 C   0  0  0  0  0  0  0  0  0  0  0  0
    7.6032   48.8907   32.0854 C   0  0  0  0  0  0  0  0  0  0  0  0
    4.9030   49.1176   32.7811 C   0  0  0  0  0  0  0  0  0  0  0  0
    7.1180   50.0827   32.6323 C   0  0  0  0  0  0  0  0  0  0  0  0
    5.7695   50.1955   32.9815 C   0  0  0  0  0  0  0  0  0  0  0  0
    8.8089   40.1915   34.2082 O   0  0  0  0  0  0  0  0  0  0  0  0
   11.2378   40.7906   33.3654 O   0  0  0  0  0  0  0  0  0  0  0  0
   10.9137   40.6843   31.9929 C   0  0  0  0  0  0  0  0  0  0  0  0
   11.5175   39.3773   31.4393 C   0  0  0  0  0  0  0  0  0  0  0  0
   12.7478   39.0868   32.0755 O   0  0  0  0  0  0  0  0  0  0  0  0
   10.6069   38.1851   31.6656 C   0  0  0  0  0  0  0  0  0  0  0  0
   12.9372   37.6810   32.0290 C   0  0  0  0  0  0  0  0  0  0  0  0
    9.6404   38.0882   30.6475 O   0  0  0  0  0  0  0  0  0  0  0  0
   11.5789   37.0134   31.7045 C   0  0  0  0  0  0  0  0  0  0  0  0
   13.4915   37.2182   33.3239 N   0  0  0  0  0  0  0  0  0  0  0  0
   11.6124   36.3388   30.4673 O   0  0  0  0  0  0  0  0  0  0  0  0
   14.4766   36.3272   33.5730 C   0  0  0  0  0  0  0  0  0  0  0  0
   13.1184   37.6317   34.5690 C   0  0  0  0  0  0  0  0  0  0  0  0
   15.2066   35.6139   32.6740 N   0  0  0  0  0  0  0  0  0  0  0  0
   14.6735   36.2274   34.9184 C   0  0  0  0  0  0  0  0  0  0  0  0
   13.8227   37.0455   35.5785 N   0  0  0  0  0  0  0  0  0  0  0  0
   16.1638   34.7593   33.1548 C   0  0  0  0  0  0  0  0  0  0  0  0
   15.6517   35.3491   35.4132 C   0  0  0  0  0  0  0  0  0  0  0  0
   16.3792   34.6308   34.5043 N   0  0  0  0  0  0  0  0  0  0  0  0
   15.9004   35.1932   36.8090 N   0  0  0  0  0  0  0  0  0  0  0  0
    9.8222   44.9951   32.1507 H   0  0  0  0  0  0  0  0  0  0  0  0
   11.1123   46.2881   34.4919 H   0  0  0  0  0  0  0  0  0  0  0  0
   10.9132   46.9029   32.9354 H   0  0  0  0  0  0  0  0  0  0  0  0
    8.6038   46.7852   33.6836 H   0  0  0  0  0  0  0  0  0  0  0  0
    8.6825   45.5705   34.9742 H   0  0  0  0  0  0  0  0  0  0  0  0
    6.8092   46.4095   30.2781 H   0  0  0  0  0  0  0  0  0  0  0  0
    8.3556   46.5347   31.1609 H   0  0  0  0  0  0  0  0  0  0  0  0
    4.7012   47.0976   32.0796 H   0  0  0  0  0  0  0  0  0  0  0  0
    8.6501   48.8196   31.8172 H   0  0  0  0  0  0  0  0  0  0  0  0
    3.8577   49.2078   33.0468 H   0  0  0  0  0  0  0  0  0  0  0  0
    7.7872   50.9198   32.7836 H   0  0  0  0  0  0  0  0  0  0  0  0
    5.3954   51.1192   33.4040 H   0  0  0  0  0  0  0  0  0  0  0  0
    9.8234   40.7188   31.7572 H   0  0  0  0  0  0  0  0  0  0  0  0
   11.3849   41.5413   31.4659 H   0  0  0  0  0  0  0  0  0  0  0  0
   11.7007   39.5016   30.3469 H   0  0  0  0  0  0  0  0  0  0  0  0
   10.1098   38.2752   32.6606 H   0  0  0  0  0  0  0  0  0  0  0  0
   13.6713   37.4590   31.2227 H   0  0  0  0  0  0  0  0  0  0  0  0
    9.0032   37.3836   30.9352 H   0  0  0  0  0  0  0  0  0  0  0  0
   11.2705   36.3048   32.5088 H   0  0  0  0  0  0  0  0  0  0  0  0
   12.1442   35.5135   30.6141 H   0  0  0  0  0  0  0  0  0  0  0  0
   12.3362   38.3592   34.7444 H   0  0  0  0  0  0  0  0  0  0  0  0
   16.7571   34.1787   32.4620 H   0  0  0  0  0  0  0  0  0  0  0  0
   15.3532   35.7355   37.5139 H   0  0  0  0  0  0  0  0  0  0  0  0
   16.6363   34.5314   37.1416 H   0  0  0  0  0  0  0  0  0  0  0  0
  1  2  2  0
  1  3  1  0
  3  4  1  0
  4  5  1  0
  6  1  1  0
  7  6  1  0
  6  8  1  0
  8  9  1  0
  9 10  1  0
  9 11  2  0
 10 12  1  0
 12 13  1  0
 13 14  2  0
 15 13  1  0
 14 16  1  0
 17 15  2  0
 16 18  2  0
 18 17  1  0
  4 19  2  0
  4 20  1  0
 21 20  1  0
 21 22  1  0
 22 23  1  0
 22 24  1  0
 23 25  1  0
 24 26  1  0
 24 27  1  0
 27 25  1  0
 25 28  1  0
 27 29  1  0
 30 28  1  0
 31 28  1  0
 32 30  2  0
 30 33  1  0
 34 31  2  0
 35 32  1  0
 33 36  2  0
 33 34  1  0
 37 35  2  0
 37 36  1  0
 36 38  1  0
  6 39  1  6
  7 40  1  0
  7 41  1  0
  8 42  1  0
  8 43  1  0
 12 44  1  0
 12 45  1  0
 14 46  1  0
 15 47  1  0
 16 48  1  0
 17 49  1  0
 18 50  1  0
 21 51  1  0
 21 52  1  0
 22 53  1  0
 24 54  1  0
 25 55  1  0
 26 56  1  0
 27 57  1  0
 29 58  1  0
 31 59  1  0
 35 60  1  0
 38 61  1  0
 38 62  1  0
M  CHG  1   5  -1
M  END
>  <EmbedRMS>  (292) 
0.08874460899943683

$$$$

     RDKit          3D

 62 65  0  0  0  0  0  0  0  0999 V2000
   10.2844   43.7743   33.8068 C   0  0  0  0  0  0  0  0  0  0  0  0
   11.4069   43.5903   34.3635 O   0  0  0  0  0  0  0  0  0  0  0  0
    9.3680   42.7311   33.6987 O   0  0  0  0  0  0  0  0  0  0  0  0
    9.8862   41.2340   34.2826 P   0  0  0  0  0  5  0  0  0  0  0  0
   10.3670   41.4693   35.8732 O   0  0  0  0  0  1  0  0  0  0  0  0
    9.9493   45.1163   33.2546 C   0  0  2  0  0  0  0  0  0  0  0  0
   11.0752   46.0280   33.4735 N   0  0  0  0  0  0  0  0  0  0  0  0
    8.6782   45.6536   33.9413 C   0  0  0  0  0  0  0  0  0  0  0  0
    8.1751   46.8974   33.2761 C   0  0  0  0  0  0  0  0  0  0  0  0
    7.5621   46.8049   32.0215 O   0  0  0  0  0  0  0  0  0  0  0  0
    8.3292   48.0160   33.8383 O   0  0  0  0  0  0  0  0  0  0  0  0
    7.0336   47.9304   31.3238 C   0  0  0  0  0  0  0  0  0  0  0  0
    5.7749   48.4165   31.9890 C   0  0  0  0  0  0  0  0  0  0  0  0
    5.7474   49.6537   32.6544 C   0  0  0  0  0  0  0  0  0  0  0  0
    4.6199   47.6178   31.9714 C   0  0  0  0  0  0  0  0  0  0  0  0
    4.5771   50.0871   33.2855 C   0  0  0  0  0  0  0  0  0  0  0  0
    3.4517   48.0549   32.6036 C   0  0  0  0  0  0  0  0  0  0  0  0
    3.4300   49.2889   33.2596 C   0  0  0  0  0  0  0  0  0  0  0  0
    8.8082   40.1915   34.2078 O   0  0  0  0  0  0  0  0  0  0  0  0
   11.2374   40.7904   33.3655 O   0  0  0  0  0  0  0  0  0  0  0  0
   10.9138   40.6842   31.9928 C   0  0  0  0  0  0  0  0  0  0  0  0
   11.5176   39.3772   31.4393 C   0  0  0  0  0  0  0  0  0  0  0  0
   12.7478   39.0868   32.0755 O   0  0  0  0  0  0  0  0  0  0  0  0
   10.6069   38.1851   31.6656 C   0  0  0  0  0  0  0  0  0  0  0  0
   12.9372   37.6810   32.0290 C   0  0  0  0  0  0  0  0  0  0  0  0
    9.6404   38.0882   30.6475 O   0  0  0  0  0  0  0  0  0  0  0  0
   11.5789   37.0133   31.7045 C   0  0  0  0  0  0  0  0  0  0  0  0
   13.4915   37.2181   33.3239 N   0  0  0  0  0  0  0  0  0  0  0  0
   11.6125   36.3388   30.4673 O   0  0  0  0  0  0  0  0  0  0  0  0
   14.4766   36.3272   33.5730 C   0  0  0  0  0  0  0  0  0  0  0  0
   13.1184   37.6317   34.5690 C   0  0  0  0  0  0  0  0  0  0  0  0
   15.2066   35.6139   32.6741 N   0  0  0  0  0  0  0  0  0  0  0  0
   14.6735   36.2273   34.9184 C   0  0  0  0  0  0  0  0  0  0  0  0
   13.8227   37.0455   35.5785 N   0  0  0  0  0  0  0  0  0  0  0  0
   16.1638   34.7593   33.1548 C   0  0  0  0  0  0  0  0  0  0  0  0
   15.6517   35.3491   35.4132 C   0  0  0  0  0  0  0  0  0  0  0  0
   16.3792   34.6308   34.5043 N   0  0  0  0  0  0  0  0  0  0  0  0
   15.9004   35.1932   36.8091 N   0  0  0  0  0  0  0  0  0  0  0  0
    9.7645   45.0043   32.1619 H   0  0  0  0  0  0  0  0  0  0  0  0
   11.8940   45.6797   32.9220 H   0  0  0  0  0  0  0  0  0  0  0  0
   10.8432   46.9570   33.0538 H   0  0  0  0  0  0  0  0  0  0  0  0
    8.8842   45.8542   35.0163 H   0  0  0  0  0  0  0  0  0  0  0  0
    7.8676   44.8945   33.8894 H   0  0  0  0  0  0  0  0  0  0  0  0
    7.8012   48.7328   31.2618 H   0  0  0  0  0  0  0  0  0  0  0  0
    6.7950   47.6230   30.2838 H   0  0  0  0  0  0  0  0  0  0  0  0
    6.6297   50.2807   32.6871 H   0  0  0  0  0  0  0  0  0  0  0  0
    4.6264   46.6577   31.4702 H   0  0  0  0  0  0  0  0  0  0  0  0
    4.5599   51.0412   33.7963 H   0  0  0  0  0  0  0  0  0  0  0  0
    2.5638   47.4363   32.5865 H   0  0  0  0  0  0  0  0  0  0  0  0
    2.5254   49.6256   33.7492 H   0  0  0  0  0  0  0  0  0  0  0  0
    9.8236   40.7188   31.7567 H   0  0  0  0  0  0  0  0  0  0  0  0
   11.3853   41.5413   31.4661 H   0  0  0  0  0  0  0  0  0  0  0  0
   11.7008   39.5015   30.3469 H   0  0  0  0  0  0  0  0  0  0  0  0
   10.1099   38.2752   32.6605 H   0  0  0  0  0  0  0  0  0  0  0  0
   13.6714   37.4590   31.2227 H   0  0  0  0  0  0  0  0  0  0  0  0
    9.0032   37.3836   30.9351 H   0  0  0  0  0  0  0  0  0  0  0  0
   11.2705   36.3048   32.5088 H   0  0  0  0  0  0  0  0  0  0  0  0
   12.1443   35.5135   30.6141 H   0  0  0  0  0  0  0  0  0  0  0  0
   12.3362   38.3592   34.7444 H   0  0  0  0  0  0  0  0  0  0  0  0
   16.7571   34.1787   32.4620 H   0  0  0  0  0  0  0  0  0  0  0  0
   16.6363   34.5314   37.1416 H   0  0  0  0  0  0  0  0  0  0  0  0
   15.3532   35.7355   37.5139 H   0  0  0  0  0  0  0  0  0  0  0  0
  1  2  2  0
  1  3  1  0
  3  4  1  0
  4  5  1  0
  6  1  1  0
  7  6  1  0
  6  8  1  0
  8  9  1  0
  9 10  1  0
  9 11  2  0
 10 12  1  0
 12 13  1  0
 13 14  2  0
 15 13  1  0
 14 16  1  0
 17 15  2  0
 16 18  2  0
 18 17  1  0
  4 19  2  0
  4 20  1  0
 21 20  1  0
 21 22  1  0
 22 23  1  0
 22 24  1  0
 23 25  1  0
 24 26  1  0
 24 27  1  0
 27 25  1  0
 25 28  1  0
 27 29  1  0
 30 28  1  0
 31 28  1  0
 32 30  2  0
 30 33  1  0
 34 31  2  0
 35 32  1  0
 33 36  2  0
 33 34  1  0
 37 35  2  0
 37 36  1  0
 36 38  1  0
  6 39  1  6
  7 40  1  0
  7 41  1  0
  8 42  1  0
  8 43  1  0
 12 44  1  0
 12 45  1  0
 14 46  1  0
 15 47  1  0
 16 48  1  0
 17 49  1  0
 18 50  1  0
 21 51  1  0
 21 52  1  0
 22 53  1  0
 24 54  1  0
 25 55  1  0
 26 56  1  0
 27 57  1  0
 29 58  1  0
 31 59  1  0
 35 60  1  0
 38 61  1  0
 38 62  1  0
M  CHG  1   5  -1
M  END
>  <EmbedRMS>  (293) 
0.08890163715924092

$$$$

     RDKit          3D

 62 65  0  0  0  0  0  0  0  0999 V2000
   10.2817   43.7754   33.8049 C   0  0  0  0  0  0  0  0  0  0  0  0
   11.4067   43.5924   34.3571 O   0  0  0  0  0  0  0  0  0  0  0  0
    9.3695   42.7296   33.7001 O   0  0  0  0  0  0  0  0  0  0  0  0
    9.8872   41.2342   34.2860 P   0  0  0  0  0  5  0  0  0  0  0  0
   10.3683   41.4713   35.8757 O   0  0  0  0  0  1  0  0  0  0  0  0
    9.9589   45.1129   33.2290 C   0  0  2  0  0  0  0  0  0  0  0  0
   11.0682   46.0294   33.4994 N   0  0  0  0  0  0  0  0  0  0  0  0
    8.6301   45.6749   33.7927 C   0  0  0  0  0  0  0  0  0  0  0  0
    7.4471   45.2011   33.0007 C   0  0  0  0  0  0  0  0  0  0  0  0
    6.9978   43.8870   33.1475 O   0  0  0  0  0  0  0  0  0  0  0  0
    6.8907   45.9809   32.1798 O   0  0  0  0  0  0  0  0  0  0  0  0
    5.9380   43.3390   32.3731 C   0  0  0  0  0  0  0  0  0  0  0  0
    5.8837   41.8567   32.5984 C   0  0  0  0  0  0  0  0  0  0  0  0
    5.2073   41.3356   33.7132 C   0  0  0  0  0  0  0  0  0  0  0  0
    6.5694   40.9829   31.7377 C   0  0  0  0  0  0  0  0  0  0  0  0
    5.1910   39.9564   33.9449 C   0  0  0  0  0  0  0  0  0  0  0  0
    6.5460   39.6043   31.9700 C   0  0  0  0  0  0  0  0  0  0  0  0
    5.8564   39.0912   33.0718 C   0  0  0  0  0  0  0  0  0  0  0  0
    8.8104   40.1910   34.2130 O   0  0  0  0  0  0  0  0  0  0  0  0
   11.2373   40.7902   33.3687 O   0  0  0  0  0  0  0  0  0  0  0  0
   10.9129   40.6890   31.9965 C   0  0  0  0  0  0  0  0  0  0  0  0
   11.5258   39.3899   31.4375 C   0  0  0  0  0  0  0  0  0  0  0  0
   12.7497   39.0919   32.0841 O   0  0  0  0  0  0  0  0  0  0  0  0
   10.6113   38.1913   31.6445 C   0  0  0  0  0  0  0  0  0  0  0  0
   12.9423   37.6856   32.0296 C   0  0  0  0  0  0  0  0  0  0  0  0
    9.6080   38.0847   30.6582 O   0  0  0  0  0  0  0  0  0  0  0  0
   11.5840   37.0187   31.6881 C   0  0  0  0  0  0  0  0  0  0  0  0
   13.4896   37.2165   33.3250 N   0  0  0  0  0  0  0  0  0  0  0  0
   11.6200   36.3060   30.4697 O   0  0  0  0  0  0  0  0  0  0  0  0
   14.4757   36.3265   33.5738 C   0  0  0  0  0  0  0  0  0  0  0  0
   13.1174   37.6308   34.5699 C   0  0  0  0  0  0  0  0  0  0  0  0
   15.2064   35.6140   32.6745 N   0  0  0  0  0  0  0  0  0  0  0  0
   14.6730   36.2268   34.9190 C   0  0  0  0  0  0  0  0  0  0  0  0
   13.8223   37.0450   35.5792 N   0  0  0  0  0  0  0  0  0  0  0  0
   16.1639   34.7597   33.1550 C   0  0  0  0  0  0  0  0  0  0  0  0
   15.6517   35.3490   35.4135 C   0  0  0  0  0  0  0  0  0  0  0  0
   16.3794   34.6310   34.5045 N   0  0  0  0  0  0  0  0  0  0  0  0
   15.9005   35.1931   36.8093 N   0  0  0  0  0  0  0  0  0  0  0  0
    9.8769   44.9932   32.1250 H   0  0  0  0  0  0  0  0  0  0  0  0
   11.0621   46.2953   34.5121 H   0  0  0  0  0  0  0  0  0  0  0  0
   10.9205   46.9055   32.9470 H   0  0  0  0  0  0  0  0  0  0  0  0
    8.5020   45.3858   34.8588 H   0  0  0  0  0  0  0  0  0  0  0  0
    8.6466   46.7868   33.7604 H   0  0  0  0  0  0  0  0  0  0  0  0
    4.9763   43.8105   32.6707 H   0  0  0  0  0  0  0  0  0  0  0  0
    6.1070   43.5526   31.2944 H   0  0  0  0  0  0  0  0  0  0  0  0
    4.6953   41.9964   34.4017 H   0  0  0  0  0  0  0  0  0  0  0  0
    7.1211   41.3678   30.8890 H   0  0  0  0  0  0  0  0  0  0  0  0
    4.6649   39.5586   34.8031 H   0  0  0  0  0  0  0  0  0  0  0  0
    7.0671   38.9344   31.2995 H   0  0  0  0  0  0  0  0  0  0  0  0
    5.8436   38.0242   33.2529 H   0  0  0  0  0  0  0  0  0  0  0  0
    9.8220   40.7158   31.7617 H   0  0  0  0  0  0  0  0  0  0  0  0
   11.3767   41.5527   31.4739 H   0  0  0  0  0  0  0  0  0  0  0  0
   11.7309   39.5348   30.3523 H   0  0  0  0  0  0  0  0  0  0  0  0
   10.1185   38.2680   32.6397 H   0  0  0  0  0  0  0  0  0  0  0  0
   13.6876   37.4714   31.2318 H   0  0  0  0  0  0  0  0  0  0  0  0
   10.0269   38.1777   29.7641 H   0  0  0  0  0  0  0  0  0  0  0  0
   11.2789   36.3128   32.4919 H   0  0  0  0  0  0  0  0  0  0  0  0
   11.9867   36.9096   29.7716 H   0  0  0  0  0  0  0  0  0  0  0  0
   12.3363   38.3595   34.7454 H   0  0  0  0  0  0  0  0  0  0  0  0
   16.7575   34.1796   32.4621 H   0  0  0  0  0  0  0  0  0  0  0  0
   16.6368   34.5316   37.1417 H   0  0  0  0  0  0  0  0  0  0  0  0
   15.3532   35.7351   37.5143 H   0  0  0  0  0  0  0  0  0  0  0  0
  1  2  2  0
  1  3  1  0
  3  4  1  0
  4  5  1  0
  6  1  1  0
  7  6  1  0
  6  8  1  0
  8  9  1  0
  9 10  1  0
  9 11  2  0
 10 12  1  0
 12 13  1  0
 13 14  2  0
 15 13  1  0
 14 16  1  0
 17 15  2  0
 16 18  2  0
 18 17  1  0
  4 19  2  0
  4 20  1  0
 21 20  1  0
 21 22  1  0
 22 23  1  0
 22 24  1  0
 23 25  1  0
 24 26  1  0
 24 27  1  0
 27 25  1  0
 25 28  1  0
 27 29  1  0
 30 28  1  0
 31 28  1  0
 32 30  2  0
 30 33  1  0
 34 31  2  0
 35 32  1  0
 33 36  2  0
 33 34  1  0
 37 35  2  0
 37 36  1  0
 36 38  1  0
  6 39  1  6
  7 40  1  0
  7 41  1  0
  8 42  1  0
  8 43  1  0
 12 44  1  0
 12 45  1  0
 14 46  1  0
 15 47  1  0
 16 48  1  0
 17 49  1  0
 18 50  1  0
 21 51  1  0
 21 52  1  0
 22 53  1  0
 24 54  1  0
 25 55  1  0
 26 56  1  0
 27 57  1  0
 29 58  1  0
 31 59  1  0
 35 60  1  0
 38 61  1  0
 38 62  1  0
M  CHG  1   5  -1
M  END
>  <EmbedRMS>  (294) 
0.08676773259417729

$$$$

     RDKit          3D

 62 65  0  0  0  0  0  0  0  0999 V2000
   10.2817   43.7734   33.8045 C   0  0  0  0  0  0  0  0  0  0  0  0
   11.4033   43.5899   34.3636 O   0  0  0  0  0  0  0  0  0  0  0  0
    9.3663   42.7296   33.6979 O   0  0  0  0  0  0  0  0  0  0  0  0
    9.8867   41.2346   34.2849 P   0  0  0  0  0  5  0  0  0  0  0  0
   10.3676   41.4723   35.8748 O   0  0  0  0  0  1  0  0  0  0  0  0
    9.9566   45.1146   33.2385 C   0  0  2  0  0  0  0  0  0  0  0  0
   11.0729   46.0289   33.4876 N   0  0  0  0  0  0  0  0  0  0  0  0
    8.6661   45.6769   33.8720 C   0  0  0  0  0  0  0  0  0  0  0  0
    7.4395   45.0501   33.2814 C   0  0  0  0  0  0  0  0  0  0  0  0
    6.7180   44.1036   34.0192 O   0  0  0  0  0  0  0  0  0  0  0  0
    7.0677   45.3876   32.1243 O   0  0  0  0  0  0  0  0  0  0  0  0
    5.5667   43.4242   33.5190 C   0  0  0  0  0  0  0  0  0  0  0  0
    5.9577   42.1099   32.8969 C   0  0  0  0  0  0  0  0  0  0  0  0
    6.6074   42.0764   31.6513 C   0  0  0  0  0  0  0  0  0  0  0  0
    5.6753   40.9005   33.5557 C   0  0  0  0  0  0  0  0  0  0  0  0
    6.9615   40.8534   31.0728 C   0  0  0  0  0  0  0  0  0  0  0  0
    6.0216   39.6795   32.9683 C   0  0  0  0  0  0  0  0  0  0  0  0
    6.6660   39.6560   31.7290 C   0  0  0  0  0  0  0  0  0  0  0  0
    8.8138   40.1882   34.2134 O   0  0  0  0  0  0  0  0  0  0  0  0
   11.2379   40.7915   33.3687 O   0  0  0  0  0  0  0  0  0  0  0  0
   10.9148   40.6900   31.9962 C   0  0  0  0  0  0  0  0  0  0  0  0
   11.5263   39.3903   31.4375 C   0  0  0  0  0  0  0  0  0  0  0  0
   12.7501   39.0918   32.0840 O   0  0  0  0  0  0  0  0  0  0  0  0
   10.6113   38.1921   31.6447 C   0  0  0  0  0  0  0  0  0  0  0  0
   12.9422   37.6855   32.0296 C   0  0  0  0  0  0  0  0  0  0  0  0
    9.6075   38.0857   30.6586 O   0  0  0  0  0  0  0  0  0  0  0  0
   11.5837   37.0191   31.6882 C   0  0  0  0  0  0  0  0  0  0  0  0
   13.4895   37.2164   33.3249 N   0  0  0  0  0  0  0  0  0  0  0  0
   11.6195   36.3064   30.4697 O   0  0  0  0  0  0  0  0  0  0  0  0
   14.4757   36.3264   33.5738 C   0  0  0  0  0  0  0  0  0  0  0  0
   13.1173   37.6308   34.5699 C   0  0  0  0  0  0  0  0  0  0  0  0
   15.2063   35.6140   32.6745 N   0  0  0  0  0  0  0  0  0  0  0  0
   14.6730   36.2268   34.9190 C   0  0  0  0  0  0  0  0  0  0  0  0
   13.8223   37.0450   35.5792 N   0  0  0  0  0  0  0  0  0  0  0  0
   16.1639   34.7597   33.1550 C   0  0  0  0  0  0  0  0  0  0  0  0
   15.6517   35.3490   35.4135 C   0  0  0  0  0  0  0  0  0  0  0  0
   16.3794   34.6310   34.5045 N   0  0  0  0  0  0  0  0  0  0  0  0
   15.9005   35.1931   36.8093 N   0  0  0  0  0  0  0  0  0  0  0  0
    9.8197   45.0099   32.1376 H   0  0  0  0  0  0  0  0  0  0  0  0
   10.8404   46.9597   33.0704 H   0  0  0  0  0  0  0  0  0  0  0  0
   11.9051   45.6903   32.9502 H   0  0  0  0  0  0  0  0  0  0  0  0
    8.6766   45.5253   34.9740 H   0  0  0  0  0  0  0  0  0  0  0  0
    8.6017   46.7724   33.6943 H   0  0  0  0  0  0  0  0  0  0  0  0
    5.0185   44.0511   32.7824 H   0  0  0  0  0  0  0  0  0  0  0  0
    4.8704   43.2533   34.3673 H   0  0  0  0  0  0  0  0  0  0  0  0
    6.8338   42.9923   31.1231 H   0  0  0  0  0  0  0  0  0  0  0  0
    5.1823   40.9005   34.5198 H   0  0  0  0  0  0  0  0  0  0  0  0
    7.4635   40.8338   30.1141 H   0  0  0  0  0  0  0  0  0  0  0  0
    5.7971   38.7514   33.4779 H   0  0  0  0  0  0  0  0  0  0  0  0
    6.9365   38.7103   31.2784 H   0  0  0  0  0  0  0  0  0  0  0  0
    9.8250   40.7182   31.7607 H   0  0  0  0  0  0  0  0  0  0  0  0
   11.3799   41.5532   31.4737 H   0  0  0  0  0  0  0  0  0  0  0  0
   11.7314   39.5348   30.3523 H   0  0  0  0  0  0  0  0  0  0  0  0
   10.1187   38.2691   32.6399 H   0  0  0  0  0  0  0  0  0  0  0  0
   13.6873   37.4711   31.2318 H   0  0  0  0  0  0  0  0  0  0  0  0
   10.0259   38.1804   29.7644 H   0  0  0  0  0  0  0  0  0  0  0  0
   11.2784   36.3132   32.4920 H   0  0  0  0  0  0  0  0  0  0  0  0
   11.9854   36.9103   29.7715 H   0  0  0  0  0  0  0  0  0  0  0  0
   12.3362   38.3595   34.7454 H   0  0  0  0  0  0  0  0  0  0  0  0
   16.7575   34.1795   32.4621 H   0  0  0  0  0  0  0  0  0  0  0  0
   16.6368   34.5316   37.1417 H   0  0  0  0  0  0  0  0  0  0  0  0
   15.3531   35.7351   37.5143 H   0  0  0  0  0  0  0  0  0  0  0  0
  1  2  2  0
  1  3  1  0
  3  4  1  0
  4  5  1  0
  6  1  1  0
  7  6  1  0
  6  8  1  0
  8  9  1  0
  9 10  1  0
  9 11  2  0
 10 12  1  0
 12 13  1  0
 13 14  2  0
 15 13  1  0
 14 16  1  0
 17 15  2  0
 16 18  2  0
 18 17  1  0
  4 19  2  0
  4 20  1  0
 21 20  1  0
 21 22  1  0
 22 23  1  0
 22 24  1  0
 23 25  1  0
 24 26  1  0
 24 27  1  0
 27 25  1  0
 25 28  1  0
 27 29  1  0
 30 28  1  0
 31 28  1  0
 32 30  2  0
 30 33  1  0
 34 31  2  0
 35 32  1  0
 33 36  2  0
 33 34  1  0
 37 35  2  0
 37 36  1  0
 36 38  1  0
  6 39  1  6
  7 40  1  0
  7 41  1  0
  8 42  1  0
  8 43  1  0
 12 44  1  0
 12 45  1  0
 14 46  1  0
 15 47  1  0
 16 48  1  0
 17 49  1  0
 18 50  1  0
 21 51  1  0
 21 52  1  0
 22 53  1  0
 24 54  1  0
 25 55  1  0
 26 56  1  0
 27 57  1  0
 29 58  1  0
 31 59  1  0
 35 60  1  0
 38 61  1  0
 38 62  1  0
M  CHG  1   5  -1
M  END
>  <EmbedRMS>  (295) 
0.08629912591676984

$$$$

     RDKit          3D

 62 65  0  0  0  0  0  0  0  0999 V2000
   10.2809   43.7761   33.8098 C   0  0  0  0  0  0  0  0  0  0  0  0
   11.4070   43.5919   34.3590 O   0  0  0  0  0  0  0  0  0  0  0  0
    9.3693   42.7296   33.6984 O   0  0  0  0  0  0  0  0  0  0  0  0
    9.8864   41.2340   34.2846 P   0  0  0  0  0  5  0  0  0  0  0  0
   10.3661   41.4704   35.8750 O   0  0  0  0  0  1  0  0  0  0  0  0
    9.9500   45.1175   33.2494 C   0  0  2  0  0  0  0  0  0  0  0  0
   11.0755   46.0253   33.4790 N   0  0  0  0  0  0  0  0  0  0  0  0
    8.6577   45.6941   33.8703 C   0  0  0  0  0  0  0  0  0  0  0  0
    7.4386   44.9416   33.4321 C   0  0  0  0  0  0  0  0  0  0  0  0
    6.8314   44.0416   34.3153 O   0  0  0  0  0  0  0  0  0  0  0  0
    6.9908   45.1012   32.2637 O   0  0  0  0  0  0  0  0  0  0  0  0
    5.6952   43.2522   33.9713 C   0  0  0  0  0  0  0  0  0  0  0  0
    4.4633   44.1113   33.8900 C   0  0  0  0  0  0  0  0  0  0  0  0
    3.8332   44.3461   32.6563 C   0  0  0  0  0  0  0  0  0  0  0  0
    3.9472   44.7078   35.0519 C   0  0  0  0  0  0  0  0  0  0  0  0
    2.6983   45.1606   32.5899 C   0  0  0  0  0  0  0  0  0  0  0  0
    2.8121   45.5214   34.9812 C   0  0  0  0  0  0  0  0  0  0  0  0
    2.1877   45.7472   33.7513 C   0  0  0  0  0  0  0  0  0  0  0  0
    8.8081   40.1918   34.2087 O   0  0  0  0  0  0  0  0  0  0  0  0
   11.2377   40.7898   33.3689 O   0  0  0  0  0  0  0  0  0  0  0  0
   10.9157   40.6896   31.9960 C   0  0  0  0  0  0  0  0  0  0  0  0
   11.5270   39.3897   31.4372 C   0  0  0  0  0  0  0  0  0  0  0  0
   12.7508   39.0915   32.0836 O   0  0  0  0  0  0  0  0  0  0  0  0
   10.6122   38.1916   31.6452 C   0  0  0  0  0  0  0  0  0  0  0  0
   12.9429   37.6852   32.0294 C   0  0  0  0  0  0  0  0  0  0  0  0
    9.6069   38.0858   30.6603 O   0  0  0  0  0  0  0  0  0  0  0  0
   11.5844   37.0185   31.6879 C   0  0  0  0  0  0  0  0  0  0  0  0
   13.4899   37.2163   33.3249 N   0  0  0  0  0  0  0  0  0  0  0  0
   11.6201   36.3062   30.4693 O   0  0  0  0  0  0  0  0  0  0  0  0
   14.4759   36.3263   33.5738 C   0  0  0  0  0  0  0  0  0  0  0  0
   13.1175   37.6307   34.5698 C   0  0  0  0  0  0  0  0  0  0  0  0
   15.2065   35.6139   32.6746 N   0  0  0  0  0  0  0  0  0  0  0  0
   14.6731   36.2267   34.9190 C   0  0  0  0  0  0  0  0  0  0  0  0
   13.8224   37.0450   35.5792 N   0  0  0  0  0  0  0  0  0  0  0  0
   16.1640   34.7595   33.1551 C   0  0  0  0  0  0  0  0  0  0  0  0
   15.6517   35.3489   35.4136 C   0  0  0  0  0  0  0  0  0  0  0  0
   16.3795   34.6310   34.5046 N   0  0  0  0  0  0  0  0  0  0  0  0
   15.9006   35.1931   36.8094 N   0  0  0  0  0  0  0  0  0  0  0  0
    9.8114   45.0038   32.1510 H   0  0  0  0  0  0  0  0  0  0  0  0
   10.9074   46.9080   32.9431 H   0  0  0  0  0  0  0  0  0  0  0  0
   11.1190   46.2821   34.4931 H   0  0  0  0  0  0  0  0  0  0  0  0
    8.5387   46.7552   33.5609 H   0  0  0  0  0  0  0  0  0  0  0  0
    8.7265   45.6765   34.9802 H   0  0  0  0  0  0  0  0  0  0  0  0
    5.5464   42.4834   34.7587 H   0  0  0  0  0  0  0  0  0  0  0  0
    5.8842   42.7130   33.0170 H   0  0  0  0  0  0  0  0  0  0  0  0
    4.2200   43.9022   31.7475 H   0  0  0  0  0  0  0  0  0  0  0  0
    4.4253   44.5432   36.0097 H   0  0  0  0  0  0  0  0  0  0  0  0
    2.2154   45.3383   31.6377 H   0  0  0  0  0  0  0  0  0  0  0  0
    2.4175   45.9782   35.8796 H   0  0  0  0  0  0  0  0  0  0  0  0
    1.3096   46.3777   33.6980 H   0  0  0  0  0  0  0  0  0  0  0  0
    9.8255   40.7190   31.7591 H   0  0  0  0  0  0  0  0  0  0  0  0
   11.3825   41.5525   31.4747 H   0  0  0  0  0  0  0  0  0  0  0  0
   11.7317   39.5338   30.3518 H   0  0  0  0  0  0  0  0  0  0  0  0
   10.1215   38.2683   32.6412 H   0  0  0  0  0  0  0  0  0  0  0  0
   13.6882   37.4706   31.2319 H   0  0  0  0  0  0  0  0  0  0  0  0
   10.0255   38.1751   29.7656 H   0  0  0  0  0  0  0  0  0  0  0  0
   11.2795   36.3123   32.4915 H   0  0  0  0  0  0  0  0  0  0  0  0
   11.9870   36.9099   29.7714 H   0  0  0  0  0  0  0  0  0  0  0  0
   12.3365   38.3595   34.7453 H   0  0  0  0  0  0  0  0  0  0  0  0
   16.7576   34.1794   32.4622 H   0  0  0  0  0  0  0  0  0  0  0  0
   16.6368   34.5316   37.1418 H   0  0  0  0  0  0  0  0  0  0  0  0
   15.3532   35.7351   37.5144 H   0  0  0  0  0  0  0  0  0  0  0  0
  1  2  2  0
  1  3  1  0
  3  4  1  0
  4  5  1  0
  6  1  1  0
  7  6  1  0
  6  8  1  0
  8  9  1  0
  9 10  1  0
  9 11  2  0
 10 12  1  0
 12 13  1  0
 13 14  2  0
 15 13  1  0
 14 16  1  0
 17 15  2  0
 16 18  2  0
 18 17  1  0
  4 19  2  0
  4 20  1  0
 21 20  1  0
 21 22  1  0
 22 23  1  0
 22 24  1  0
 23 25  1  0
 24 26  1  0
 24 27  1  0
 27 25  1  0
 25 28  1  0
 27 29  1  0
 30 28  1  0
 31 28  1  0
 32 30  2  0
 30 33  1  0
 34 31  2  0
 35 32  1  0
 33 36  2  0
 33 34  1  0
 37 35  2  0
 37 36  1  0
 36 38  1  0
  6 39  1  6
  7 40  1  0
  7 41  1  0
  8 42  1  0
  8 43  1  0
 12 44  1  0
 12 45  1  0
 14 46  1  0
 15 47  1  0
 16 48  1  0
 17 49  1  0
 18 50  1  0
 21 51  1  0
 21 52  1  0
 22 53  1  0
 24 54  1  0
 25 55  1  0
 26 56  1  0
 27 57  1  0
 29 58  1  0
 31 59  1  0
 35 60  1  0
 38 61  1  0
 38 62  1  0
M  CHG  1   5  -1
M  END
>  <EmbedRMS>  (296) 
0.0870819785967573

$$$$

     RDKit          3D

 62 65  0  0  0  0  0  0  0  0999 V2000
   10.2842   43.7742   33.8112 C   0  0  0  0  0  0  0  0  0  0  0  0
   11.4069   43.5909   34.3673 O   0  0  0  0  0  0  0  0  0  0  0  0
    9.3671   42.7321   33.7030 O   0  0  0  0  0  0  0  0  0  0  0  0
    9.8852   41.2340   34.2837 P   0  0  0  0  0  5  0  0  0  0  0  0
   10.3663   41.4645   35.8736 O   0  0  0  0  0  1  0  0  0  0  0  0
    9.9528   45.1140   33.2526 C   0  0  2  0  0  0  0  0  0  0  0  0
   11.0737   46.0317   33.4674 N   0  0  0  0  0  0  0  0  0  0  0  0
    8.6608   45.6725   33.8844 C   0  0  0  0  0  0  0  0  0  0  0  0
    8.8460   46.0339   35.3279 C   0  0  0  0  0  0  0  0  0  0  0  0
    8.7881   45.0345   36.3049 O   0  0  0  0  0  0  0  0  0  0  0  0
    9.0848   47.2310   35.6444 O   0  0  0  0  0  0  0  0  0  0  0  0
    9.1455   45.2544   37.6677 C   0  0  0  0  0  0  0  0  0  0  0  0
   10.6431   45.2810   37.8101 C   0  0  0  0  0  0  0  0  0  0  0  0
   11.3409   46.5010   37.8066 C   0  0  0  0  0  0  0  0  0  0  0  0
   11.3630   44.0767   37.8850 C   0  0  0  0  0  0  0  0  0  0  0  0
   12.7376   46.5132   37.8861 C   0  0  0  0  0  0  0  0  0  0  0  0
   12.7593   44.0927   37.9634 C   0  0  0  0  0  0  0  0  0  0  0  0
   13.4463   45.3102   37.9640 C   0  0  0  0  0  0  0  0  0  0  0  0
    8.8072   40.1917   34.2067 O   0  0  0  0  0  0  0  0  0  0  0  0
   11.2370   40.7914   33.3678 O   0  0  0  0  0  0  0  0  0  0  0  0
   10.9155   40.6899   31.9951 C   0  0  0  0  0  0  0  0  0  0  0  0
   11.5270   39.3897   31.4371 C   0  0  0  0  0  0  0  0  0  0  0  0
   12.7508   39.0917   32.0838 O   0  0  0  0  0  0  0  0  0  0  0  0
   10.6122   38.1917   31.6451 C   0  0  0  0  0  0  0  0  0  0  0  0
   12.9430   37.6853   32.0295 C   0  0  0  0  0  0  0  0  0  0  0  0
    9.6069   38.0859   30.6603 O   0  0  0  0  0  0  0  0  0  0  0  0
   11.5846   37.0187   31.6878 C   0  0  0  0  0  0  0  0  0  0  0  0
   13.4898   37.2164   33.3250 N   0  0  0  0  0  0  0  0  0  0  0  0
   11.6205   36.3065   30.4690 O   0  0  0  0  0  0  0  0  0  0  0  0
   14.4758   36.3263   33.5739 C   0  0  0  0  0  0  0  0  0  0  0  0
   13.1178   37.6312   34.5698 C   0  0  0  0  0  0  0  0  0  0  0  0
   15.2061   35.6135   32.6747 N   0  0  0  0  0  0  0  0  0  0  0  0
   14.6733   36.2271   34.9191 C   0  0  0  0  0  0  0  0  0  0  0  0
   13.8230   37.0458   35.5792 N   0  0  0  0  0  0  0  0  0  0  0  0
   16.1637   34.7594   33.1552 C   0  0  0  0  0  0  0  0  0  0  0  0
   15.6516   35.3488   35.4137 C   0  0  0  0  0  0  0  0  0  0  0  0
   16.3792   34.6307   34.5046 N   0  0  0  0  0  0  0  0  0  0  0  0
   15.9007   35.1931   36.8095 N   0  0  0  0  0  0  0  0  0  0  0  0
    9.7815   44.9948   32.1590 H   0  0  0  0  0  0  0  0  0  0  0  0
   10.8126   46.9676   33.0797 H   0  0  0  0  0  0  0  0  0  0  0  0
   11.8832   45.7053   32.8897 H   0  0  0  0  0  0  0  0  0  0  0  0
    7.8372   44.9312   33.7949 H   0  0  0  0  0  0  0  0  0  0  0  0
    8.3430   46.5761   33.3196 H   0  0  0  0  0  0  0  0  0  0  0  0
    8.6870   46.1961   38.0433 H   0  0  0  0  0  0  0  0  0  0  0  0
    8.7314   44.4252   38.2801 H   0  0  0  0  0  0  0  0  0  0  0  0
   10.8065   47.4411   37.7421 H   0  0  0  0  0  0  0  0  0  0  0  0
   10.8427   43.1275   37.8865 H   0  0  0  0  0  0  0  0  0  0  0  0
   13.2708   47.4554   37.8849 H   0  0  0  0  0  0  0  0  0  0  0  0
   13.3083   43.1609   38.0223 H   0  0  0  0  0  0  0  0  0  0  0  0
   14.5273   45.3219   38.0246 H   0  0  0  0  0  0  0  0  0  0  0  0
   11.3823   41.5525   31.4731 H   0  0  0  0  0  0  0  0  0  0  0  0
    9.8254   40.7189   31.7578 H   0  0  0  0  0  0  0  0  0  0  0  0
   11.7317   39.5333   30.3518 H   0  0  0  0  0  0  0  0  0  0  0  0
   10.1214   38.2688   32.6410 H   0  0  0  0  0  0  0  0  0  0  0  0
   13.6885   37.4709   31.2320 H   0  0  0  0  0  0  0  0  0  0  0  0
   10.0254   38.1744   29.7655 H   0  0  0  0  0  0  0  0  0  0  0  0
   11.2798   36.3125   32.4914 H   0  0  0  0  0  0  0  0  0  0  0  0
   11.9870   36.9105   29.7712 H   0  0  0  0  0  0  0  0  0  0  0  0
   12.3364   38.3597   34.7451 H   0  0  0  0  0  0  0  0  0  0  0  0
   16.7577   34.1797   32.4622 H   0  0  0  0  0  0  0  0  0  0  0  0
   15.3534   35.7348   37.5147 H   0  0  0  0  0  0  0  0  0  0  0  0
   16.6368   34.5314   37.1418 H   0  0  0  0  0  0  0  0  0  0  0  0
  1  2  2  0
  1  3  1  0
  3  4  1  0
  4  5  1  0
  6  1  1  0
  7  6  1  0
  6  8  1  0
  8  9  1  0
  9 10  1  0
  9 11  2  0
 10 12  1  0
 12 13  1  0
 13 14  2  0
 15 13  1  0
 14 16  1  0
 17 15  2  0
 16 18  2  0
 18 17  1  0
  4 19  2  0
  4 20  1  0
 21 20  1  0
 21 22  1  0
 22 23  1  0
 22 24  1  0
 23 25  1  0
 24 26  1  0
 24 27  1  0
 27 25  1  0
 25 28  1  0
 27 29  1  0
 30 28  1  0
 31 28  1  0
 32 30  2  0
 30 33  1  0
 34 31  2  0
 35 32  1  0
 33 36  2  0
 33 34  1  0
 37 35  2  0
 37 36  1  0
 36 38  1  0
  6 39  1  6
  7 40  1  0
  7 41  1  0
  8 42  1  0
  8 43  1  0
 12 44  1  0
 12 45  1  0
 14 46  1  0
 15 47  1  0
 16 48  1  0
 17 49  1  0
 18 50  1  0
 21 51  1  0
 21 52  1  0
 22 53  1  0
 24 54  1  0
 25 55  1  0
 26 56  1  0
 27 57  1  0
 29 58  1  0
 31 59  1  0
 35 60  1  0
 38 61  1  0
 38 62  1  0
M  CHG  1   5  -1
M  END
>  <EmbedRMS>  (297) 
0.08733224165146333

$$$$

     RDKit          3D

 62 65  0  0  0  0  0  0  0  0999 V2000
   10.2850   43.7725   33.8067 C   0  0  0  0  0  0  0  0  0  0  0  0
   11.4106   43.5874   34.3563 O   0  0  0  0  0  0  0  0  0  0  0  0
    9.3667   42.7311   33.7012 O   0  0  0  0  0  0  0  0  0  0  0  0
    9.8856   41.2339   34.2841 P   0  0  0  0  0  5  0  0  0  0  0  0
   10.3657   41.4695   35.8747 O   0  0  0  0  0  1  0  0  0  0  0  0
    9.9581   45.1108   33.2442 C   0  0  2  0  0  0  0  0  0  0  0  0
   11.0676   46.0365   33.4845 N   0  0  0  0  0  0  0  0  0  0  0  0
    8.6201   45.6581   33.7913 C   0  0  0  0  0  0  0  0  0  0  0  0
    8.6130   45.8094   35.2839 C   0  0  0  0  0  0  0  0  0  0  0  0
    8.9612   47.0396   35.8528 O   0  0  0  0  0  0  0  0  0  0  0  0
    8.3220   44.8214   36.0123 O   0  0  0  0  0  0  0  0  0  0  0  0
    8.9811   47.2737   37.2590 C   0  0  0  0  0  0  0  0  0  0  0  0
    7.5795   47.3272   37.8028 C   0  0  0  0  0  0  0  0  0  0  0  0
    6.7289   48.3854   37.4442 C   0  0  0  0  0  0  0  0  0  0  0  0
    7.0991   46.3124   38.6476 C   0  0  0  0  0  0  0  0  0  0  0  0
    5.4187   48.4317   37.9310 C   0  0  0  0  0  0  0  0  0  0  0  0
    5.7882   46.3624   39.1320 C   0  0  0  0  0  0  0  0  0  0  0  0
    4.9489   47.4214   38.7747 C   0  0  0  0  0  0  0  0  0  0  0  0
    8.8082   40.1910   34.2080 O   0  0  0  0  0  0  0  0  0  0  0  0
   11.2384   40.7903   33.3687 O   0  0  0  0  0  0  0  0  0  0  0  0
   10.9193   40.6895   31.9950 C   0  0  0  0  0  0  0  0  0  0  0  0
   11.5170   39.3801   31.4398 C   0  0  0  0  0  0  0  0  0  0  0  0
   12.7478   39.0862   32.0734 O   0  0  0  0  0  0  0  0  0  0  0  0
   10.6031   38.1891   31.6666 C   0  0  0  0  0  0  0  0  0  0  0  0
   12.9335   37.6797   32.0280 C   0  0  0  0  0  0  0  0  0  0  0  0
    9.6397   38.0777   30.6456 O   0  0  0  0  0  0  0  0  0  0  0  0
   11.5739   37.0154   31.7057 C   0  0  0  0  0  0  0  0  0  0  0  0
   13.4903   37.2178   33.3231 N   0  0  0  0  0  0  0  0  0  0  0  0
   11.6211   36.3376   30.4695 O   0  0  0  0  0  0  0  0  0  0  0  0
   14.4761   36.3273   33.5725 C   0  0  0  0  0  0  0  0  0  0  0  0
   13.1178   37.6316   34.5684 C   0  0  0  0  0  0  0  0  0  0  0  0
   15.2063   35.6139   32.6737 N   0  0  0  0  0  0  0  0  0  0  0  0
   14.6733   36.2277   34.9180 C   0  0  0  0  0  0  0  0  0  0  0  0
   13.8225   37.0459   35.5779 N   0  0  0  0  0  0  0  0  0  0  0  0
   16.1636   34.7594   33.1546 C   0  0  0  0  0  0  0  0  0  0  0  0
   15.6515   35.3494   35.4129 C   0  0  0  0  0  0  0  0  0  0  0  0
   16.3791   34.6311   34.5041 N   0  0  0  0  0  0  0  0  0  0  0  0
   15.9001   35.1935   36.8088 N   0  0  0  0  0  0  0  0  0  0  0  0
    9.8476   44.9839   32.1449 H   0  0  0  0  0  0  0  0  0  0  0  0
   10.8535   46.9455   33.0134 H   0  0  0  0  0  0  0  0  0  0  0  0
   11.1606   46.2303   34.5082 H   0  0  0  0  0  0  0  0  0  0  0  0
    8.4106   46.6459   33.3273 H   0  0  0  0  0  0  0  0  0  0  0  0
    7.7916   44.9800   33.4906 H   0  0  0  0  0  0  0  0  0  0  0  0
    9.5878   46.4904   37.7647 H   0  0  0  0  0  0  0  0  0  0  0  0
    9.4784   48.2482   37.4494 H   0  0  0  0  0  0  0  0  0  0  0  0
    7.0806   49.1714   36.7873 H   0  0  0  0  0  0  0  0  0  0  0  0
    7.7361   45.4831   38.9290 H   0  0  0  0  0  0  0  0  0  0  0  0
    4.7672   49.2499   37.6526 H   0  0  0  0  0  0  0  0  0  0  0  0
    5.4223   45.5790   39.7831 H   0  0  0  0  0  0  0  0  0  0  0  0
    3.9344   47.4581   39.1500 H   0  0  0  0  0  0  0  0  0  0  0  0
    9.8314   40.7396   31.7550 H   0  0  0  0  0  0  0  0  0  0  0  0
   11.4009   41.5437   31.4729 H   0  0  0  0  0  0  0  0  0  0  0  0
   11.6982   39.5043   30.3471 H   0  0  0  0  0  0  0  0  0  0  0  0
   10.1089   38.2631   32.6649 H   0  0  0  0  0  0  0  0  0  0  0  0
   13.6656   37.4541   31.2207 H   0  0  0  0  0  0  0  0  0  0  0  0
    8.8965   38.6900   30.8852 H   0  0  0  0  0  0  0  0  0  0  0  0
   11.2846   36.3060   32.5175 H   0  0  0  0  0  0  0  0  0  0  0  0
   10.8524   35.7094   30.4590 H   0  0  0  0  0  0  0  0  0  0  0  0
   12.3353   38.3588   34.7439 H   0  0  0  0  0  0  0  0  0  0  0  0
   16.7570   34.1788   32.4619 H   0  0  0  0  0  0  0  0  0  0  0  0
   16.6360   34.5317   37.1413 H   0  0  0  0  0  0  0  0  0  0  0  0
   15.3529   35.7359   37.5136 H   0  0  0  0  0  0  0  0  0  0  0  0
  1  2  2  0
  1  3  1  0
  3  4  1  0
  4  5  1  0
  6  1  1  0
  7  6  1  0
  6  8  1  0
  8  9  1  0
  9 10  1  0
  9 11  2  0
 10 12  1  0
 12 13  1  0
 13 14  2  0
 15 13  1  0
 14 16  1  0
 17 15  2  0
 16 18  2  0
 18 17  1  0
  4 19  2  0
  4 20  1  0
 21 20  1  0
 21 22  1  0
 22 23  1  0
 22 24  1  0
 23 25  1  0
 24 26  1  0
 24 27  1  0
 27 25  1  0
 25 28  1  0
 27 29  1  0
 30 28  1  0
 31 28  1  0
 32 30  2  0
 30 33  1  0
 34 31  2  0
 35 32  1  0
 33 36  2  0
 33 34  1  0
 37 35  2  0
 37 36  1  0
 36 38  1  0
  6 39  1  6
  7 40  1  0
  7 41  1  0
  8 42  1  0
  8 43  1  0
 12 44  1  0
 12 45  1  0
 14 46  1  0
 15 47  1  0
 16 48  1  0
 17 49  1  0
 18 50  1  0
 21 51  1  0
 21 52  1  0
 22 53  1  0
 24 54  1  0
 25 55  1  0
 26 56  1  0
 27 57  1  0
 29 58  1  0
 31 59  1  0
 35 60  1  0
 38 61  1  0
 38 62  1  0
M  CHG  1   5  -1
M  END
>  <EmbedRMS>  (298) 
0.08933066455167449

$$$$

     RDKit          3D

 62 65  0  0  0  0  0  0  0  0999 V2000
   10.2855   43.7692   33.8097 C   0  0  0  0  0  0  0  0  0  0  0  0
   11.4091   43.5793   34.3613 O   0  0  0  0  0  0  0  0  0  0  0  0
    9.3641   42.7311   33.7042 O   0  0  0  0  0  0  0  0  0  0  0  0
    9.8840   41.2330   34.2845 P   0  0  0  0  0  5  0  0  0  0  0  0
   10.3700   41.4667   35.8737 O   0  0  0  0  0  1  0  0  0  0  0  0
    9.9702   45.1089   33.2343 C   0  0  2  0  0  0  0  0  0  0  0  0
   11.0601   46.0551   33.4843 N   0  0  0  0  0  0  0  0  0  0  0  0
    8.6309   45.6705   33.7506 C   0  0  0  0  0  0  0  0  0  0  0  0
    8.5484   45.7223   35.2478 C   0  0  0  0  0  0  0  0  0  0  0  0
    7.8416   44.7272   35.9289 O   0  0  0  0  0  0  0  0  0  0  0  0
    9.1190   46.6534   35.8793 O   0  0  0  0  0  0  0  0  0  0  0  0
    7.7848   44.6579   37.3502 C   0  0  0  0  0  0  0  0  0  0  0  0
    6.8635   43.5464   37.7684 C   0  0  0  0  0  0  0  0  0  0  0  0
    5.8399   43.7786   38.7034 C   0  0  0  0  0  0  0  0  0  0  0  0
    7.0419   42.2517   37.2531 C   0  0  0  0  0  0  0  0  0  0  0  0
    5.0006   42.7335   39.1029 C   0  0  0  0  0  0  0  0  0  0  0  0
    6.2004   41.2099   37.6544 C   0  0  0  0  0  0  0  0  0  0  0  0
    5.1799   41.4506   38.5781 C   0  0  0  0  0  0  0  0  0  0  0  0
    8.8066   40.1901   34.2101 O   0  0  0  0  0  0  0  0  0  0  0  0
   11.2354   40.7912   33.3666 O   0  0  0  0  0  0  0  0  0  0  0  0
   10.9121   40.6860   31.9943 C   0  0  0  0  0  0  0  0  0  0  0  0
   11.5166   39.3799   31.4411 C   0  0  0  0  0  0  0  0  0  0  0  0
   12.7482   39.0890   32.0772 O   0  0  0  0  0  0  0  0  0  0  0  0
   10.6051   38.1877   31.6660 C   0  0  0  0  0  0  0  0  0  0  0  0
   12.9411   37.6832   32.0285 C   0  0  0  0  0  0  0  0  0  0  0  0
    9.6358   38.0928   30.6503 O   0  0  0  0  0  0  0  0  0  0  0  0
   11.5828   37.0181   31.6941 C   0  0  0  0  0  0  0  0  0  0  0  0
   13.4912   37.2175   33.3246 N   0  0  0  0  0  0  0  0  0  0  0  0
   11.6146   36.3181   30.4681 O   0  0  0  0  0  0  0  0  0  0  0  0
   14.4766   36.3266   33.5734 C   0  0  0  0  0  0  0  0  0  0  0  0
   13.1188   37.6307   34.5701 C   0  0  0  0  0  0  0  0  0  0  0  0
   15.2068   35.6140   32.6739 N   0  0  0  0  0  0  0  0  0  0  0  0
   14.6741   36.2262   34.9187 C   0  0  0  0  0  0  0  0  0  0  0  0
   13.8237   37.0440   35.5795 N   0  0  0  0  0  0  0  0  0  0  0  0
   16.1642   34.7593   33.1538 C   0  0  0  0  0  0  0  0  0  0  0  0
   15.6517   35.3487   35.4118 C   0  0  0  0  0  0  0  0  0  0  0  0
   16.3801   34.6302   34.5031 N   0  0  0  0  0  0  0  0  0  0  0  0
   15.8936   35.1992   36.8085 N   0  0  0  0  0  0  0  0  0  0  0  0
    9.8717   44.9822   32.1335 H   0  0  0  0  0  0  0  0  0  0  0  0
   11.9175   45.7329   32.9780 H   0  0  0  0  0  0  0  0  0  0  0  0
   11.2847   46.0948   34.5054 H   0  0  0  0  0  0  0  0  0  0  0  0
    8.4776   46.6926   33.3411 H   0  0  0  0  0  0  0  0  0  0  0  0
    7.7991   45.0399   33.3675 H   0  0  0  0  0  0  0  0  0  0  0  0
    8.8012   44.4583   37.7529 H   0  0  0  0  0  0  0  0  0  0  0  0
    7.4306   45.6326   37.7526 H   0  0  0  0  0  0  0  0  0  0  0  0
    5.6908   44.7653   39.1241 H   0  0  0  0  0  0  0  0  0  0  0  0
    7.8284   42.0515   36.5388 H   0  0  0  0  0  0  0  0  0  0  0  0
    4.2126   42.9179   39.8216 H   0  0  0  0  0  0  0  0  0  0  0  0
    6.3410   40.2159   37.2502 H   0  0  0  0  0  0  0  0  0  0  0  0
    4.5300   40.6430   38.8893 H   0  0  0  0  0  0  0  0  0  0  0  0
   11.3831   41.5439   31.4684 H   0  0  0  0  0  0  0  0  0  0  0  0
    9.8218   40.7201   31.7584 H   0  0  0  0  0  0  0  0  0  0  0  0
   11.6996   39.5067   30.3490 H   0  0  0  0  0  0  0  0  0  0  0  0
   10.1118   38.2726   32.6632 H   0  0  0  0  0  0  0  0  0  0  0  0
   13.6814   37.4642   31.2274 H   0  0  0  0  0  0  0  0  0  0  0  0
    9.0039   37.3824   30.9351 H   0  0  0  0  0  0  0  0  0  0  0  0
   11.2848   36.3045   32.4935 H   0  0  0  0  0  0  0  0  0  0  0  0
   11.8862   36.9591   29.7597 H   0  0  0  0  0  0  0  0  0  0  0  0
   12.3370   38.3586   34.7461 H   0  0  0  0  0  0  0  0  0  0  0  0
   16.7578   34.1797   32.4604 H   0  0  0  0  0  0  0  0  0  0  0  0
   16.6255   34.5421   37.1587 H   0  0  0  0  0  0  0  0  0  0  0  0
   16.6260   34.5415   37.1566 H   0  0  0  0  0  0  0  0  0  0  0  0
  1  2  2  0
  1  3  1  0
  3  4  1  0
  4  5  1  0
  6  1  1  0
  7  6  1  0
  6  8  1  0
  8  9  1  0
  9 10  1  0
  9 11  2  0
 10 12  1  0
 12 13  1  0
 13 14  2  0
 15 13  1  0
 14 16  1  0
 17 15  2  0
 16 18  2  0
 18 17  1  0
  4 19  2  0
  4 20  1  0
 21 20  1  0
 21 22  1  0
 22 23  1  0
 22 24  1  0
 23 25  1  0
 24 26  1  0
 24 27  1  0
 27 25  1  0
 25 28  1  0
 27 29  1  0
 30 28  1  0
 31 28  1  0
 32 30  2  0
 30 33  1  0
 34 31  2  0
 35 32  1  0
 33 36  2  0
 33 34  1  0
 37 35  2  0
 37 36  1  0
 36 38  1  0
  6 39  1  6
  7 40  1  0
  7 41  1  0
  8 42  1  0
  8 43  1  0
 12 44  1  0
 12 45  1  0
 14 46  1  0
 15 47  1  0
 16 48  1  0
 17 49  1  0
 18 50  1  0
 21 51  1  0
 21 52  1  0
 22 53  1  0
 24 54  1  0
 25 55  1  0
 26 56  1  0
 27 57  1  0
 29 58  1  0
 31 59  1  0
 35 60  1  0
 38 61  1  0
 38 62  1  0
M  CHG  1   5  -1
M  END
>  <EmbedRMS>  (299) 
0.08850885374753333

$$$$

     RDKit          3D

 62 65  0  0  0  0  0  0  0  0999 V2000
   10.2865   43.7707   33.8023 C   0  0  0  0  0  0  0  0  0  0  0  0
   11.4092   43.5867   34.3586 O   0  0  0  0  0  0  0  0  0  0  0  0
    9.3669   42.7307   33.6989 O   0  0  0  0  0  0  0  0  0  0  0  0
    9.8851   41.2343   34.2842 P   0  0  0  0  0  5  0  0  0  0  0  0
   10.3658   41.4708   35.8745 O   0  0  0  0  0  1  0  0  0  0  0  0
    9.9536   45.1151   33.2535 C   0  0  2  0  0  0  0  0  0  0  0  0
   11.0706   46.0345   33.4794 N   0  0  0  0  0  0  0  0  0  0  0  0
    8.6534   45.6667   33.8816 C   0  0  0  0  0  0  0  0  0  0  0  0
    8.6773   45.7264   35.3851 C   0  0  0  0  0  0  0  0  0  0  0  0
    9.8934   45.8122   36.0692 O   0  0  0  0  0  0  0  0  0  0  0  0
    7.5874   45.7286   36.0195 O   0  0  0  0  0  0  0  0  0  0  0  0
    9.9856   45.7980   37.4882 C   0  0  0  0  0  0  0  0  0  0  0  0
   11.4325   45.7613   37.8815 C   0  0  0  0  0  0  0  0  0  0  0  0
   12.1403   44.5488   37.8393 C   0  0  0  0  0  0  0  0  0  0  0  0
   12.1098   46.9436   38.2227 C   0  0  0  0  0  0  0  0  0  0  0  0
   13.5006   44.5162   38.1612 C   0  0  0  0  0  0  0  0  0  0  0  0
   13.4703   46.9065   38.5450 C   0  0  0  0  0  0  0  0  0  0  0  0
   14.1646   45.6937   38.5164 C   0  0  0  0  0  0  0  0  0  0  0  0
    8.8077   40.1913   34.2091 O   0  0  0  0  0  0  0  0  0  0  0  0
   11.2368   40.7897   33.3684 O   0  0  0  0  0  0  0  0  0  0  0  0
   10.9153   40.6882   31.9952 C   0  0  0  0  0  0  0  0  0  0  0  0
   11.5260   39.3871   31.4366 C   0  0  0  0  0  0  0  0  0  0  0  0
   12.7491   39.0893   32.0820 O   0  0  0  0  0  0  0  0  0  0  0  0
   10.6123   38.1893   31.6462 C   0  0  0  0  0  0  0  0  0  0  0  0
   12.9373   37.6827   32.0301 C   0  0  0  0  0  0  0  0  0  0  0  0
    9.6150   38.0839   30.6538 O   0  0  0  0  0  0  0  0  0  0  0  0
   11.5793   37.0137   31.7014 C   0  0  0  0  0  0  0  0  0  0  0  0
   13.4906   37.2170   33.3243 N   0  0  0  0  0  0  0  0  0  0  0  0
   11.6216   36.3253   30.4725 O   0  0  0  0  0  0  0  0  0  0  0  0
   14.4763   36.3266   33.5731 C   0  0  0  0  0  0  0  0  0  0  0  0
   13.1182   37.6309   34.5694 C   0  0  0  0  0  0  0  0  0  0  0  0
   15.2065   35.6137   32.6740 N   0  0  0  0  0  0  0  0  0  0  0  0
   14.6735   36.2270   34.9185 C   0  0  0  0  0  0  0  0  0  0  0  0
   13.8229   37.0451   35.5788 N   0  0  0  0  0  0  0  0  0  0  0  0
   16.1639   34.7593   33.1547 C   0  0  0  0  0  0  0  0  0  0  0  0
   15.6519   35.3489   35.4132 C   0  0  0  0  0  0  0  0  0  0  0  0
   16.3794   34.6308   34.5042 N   0  0  0  0  0  0  0  0  0  0  0  0
   15.9006   35.1931   36.8090 N   0  0  0  0  0  0  0  0  0  0  0  0
    9.7899   45.0079   32.1574 H   0  0  0  0  0  0  0  0  0  0  0  0
   10.8128   46.9714   33.0921 H   0  0  0  0  0  0  0  0  0  0  0  0
   11.8861   45.7112   32.9084 H   0  0  0  0  0  0  0  0  0  0  0  0
    8.4553   46.6872   33.4895 H   0  0  0  0  0  0  0  0  0  0  0  0
    7.8023   45.0258   33.5623 H   0  0  0  0  0  0  0  0  0  0  0  0
    9.4861   46.6998   37.9050 H   0  0  0  0  0  0  0  0  0  0  0  0
    9.4679   44.8991   37.8898 H   0  0  0  0  0  0  0  0  0  0  0  0
   11.6395   43.6317   37.5542 H   0  0  0  0  0  0  0  0  0  0  0  0
   11.5869   47.8918   38.2375 H   0  0  0  0  0  0  0  0  0  0  0  0
   14.0410   43.5788   38.1311 H   0  0  0  0  0  0  0  0  0  0  0  0
   13.9875   47.8190   38.8124 H   0  0  0  0  0  0  0  0  0  0  0  0
   15.2179   45.6673   38.7640 H   0  0  0  0  0  0  0  0  0  0  0  0
    9.8252   40.7181   31.7583 H   0  0  0  0  0  0  0  0  0  0  0  0
   11.3827   41.5504   31.4733 H   0  0  0  0  0  0  0  0  0  0  0  0
   11.7290   39.5289   30.3505 H   0  0  0  0  0  0  0  0  0  0  0  0
   10.1139   38.2718   32.6380 H   0  0  0  0  0  0  0  0  0  0  0  0
   13.6726   37.4637   31.2240 H   0  0  0  0  0  0  0  0  0  0  0  0
   10.0536   38.1086   29.7639 H   0  0  0  0  0  0  0  0  0  0  0  0
   11.2646   36.3135   32.5107 H   0  0  0  0  0  0  0  0  0  0  0  0
   12.1550   35.5033   30.6316 H   0  0  0  0  0  0  0  0  0  0  0  0
   12.3363   38.3587   34.7451 H   0  0  0  0  0  0  0  0  0  0  0  0
   16.7573   34.1789   32.4619 H   0  0  0  0  0  0  0  0  0  0  0  0
   15.3533   35.7354   37.5139 H   0  0  0  0  0  0  0  0  0  0  0  0
   16.6366   34.5314   37.1415 H   0  0  0  0  0  0  0  0  0  0  0  0
  1  2  2  0
  1  3  1  0
  3  4  1  0
  4  5  1  0
  6  1  1  0
  7  6  1  0
  6  8  1  0
  8  9  1  0
  9 10  1  0
  9 11  2  0
 10 12  1  0
 12 13  1  0
 13 14  2  0
 15 13  1  0
 14 16  1  0
 17 15  2  0
 16 18  2  0
 18 17  1  0
  4 19  2  0
  4 20  1  0
 21 20  1  0
 21 22  1  0
 22 23  1  0
 22 24  1  0
 23 25  1  0
 24 26  1  0
 24 27  1  0
 27 25  1  0
 25 28  1  0
 27 29  1  0
 30 28  1  0
 31 28  1  0
 32 30  2  0
 30 33  1  0
 34 31  2  0
 35 32  1  0
 33 36  2  0
 33 34  1  0
 37 35  2  0
 37 36  1  0
 36 38  1  0
  6 39  1  6
  7 40  1  0
  7 41  1  0
  8 42  1  0
  8 43  1  0
 12 44  1  0
 12 45  1  0
 14 46  1  0
 15 47  1  0
 16 48  1  0
 17 49  1  0
 18 50  1  0
 21 51  1  0
 21 52  1  0
 22 53  1  0
 24 54  1  0
 25 55  1  0
 26 56  1  0
 27 57  1  0
 29 58  1  0
 31 59  1  0
 35 60  1  0
 38 61  1  0
 38 62  1  0
M  CHG  1   5  -1
M  END
>  <EmbedRMS>  (300) 
0.08783669900194163

$$$$

     RDKit          3D

 62 65  0  0  0  0  0  0  0  0999 V2000
   10.2861   43.7713   33.8039 C   0  0  0  0  0  0  0  0  0  0  0  0
   11.4110   43.5873   34.3552 O   0  0  0  0  0  0  0  0  0  0  0  0
    9.3668   42.7310   33.7002 O   0  0  0  0  0  0  0  0  0  0  0  0
    9.8854   41.2342   34.2842 P   0  0  0  0  0  5  0  0  0  0  0  0
   10.3653   41.4700   35.8747 O   0  0  0  0  0  1  0  0  0  0  0  0
    9.9565   45.1117   33.2477 C   0  0  2  0  0  0  0  0  0  0  0  0
   11.0680   46.0359   33.4845 N   0  0  0  0  0  0  0  0  0  0  0  0
    8.6126   45.6667   33.7875 C   0  0  0  0  0  0  0  0  0  0  0  0
    8.3954   45.4592   35.2632 C   0  0  0  0  0  0  0  0  0  0  0  0
    9.4554   45.6116   36.1604 O   0  0  0  0  0  0  0  0  0  0  0  0
    7.2413   45.1737   35.6844 O   0  0  0  0  0  0  0  0  0  0  0  0
    9.3329   45.3512   37.5531 C   0  0  0  0  0  0  0  0  0  0  0  0
   10.6772   45.5109   38.1991 C   0  0  0  0  0  0  0  0  0  0  0  0
   11.6253   44.4784   38.1113 C   0  0  0  0  0  0  0  0  0  0  0  0
   11.0260   46.7154   38.8321 C   0  0  0  0  0  0  0  0  0  0  0  0
   12.8951   44.6390   38.6744 C   0  0  0  0  0  0  0  0  0  0  0  0
   12.2969   46.8718   39.3947 C   0  0  0  0  0  0  0  0  0  0  0  0
   13.2298   45.8338   39.3179 C   0  0  0  0  0  0  0  0  0  0  0  0
    8.8081   40.1912   34.2082 O   0  0  0  0  0  0  0  0  0  0  0  0
   11.2380   40.7903   33.3688 O   0  0  0  0  0  0  0  0  0  0  0  0
   10.9186   40.6888   31.9951 C   0  0  0  0  0  0  0  0  0  0  0  0
   11.5179   39.3801   31.4400 C   0  0  0  0  0  0  0  0  0  0  0  0
   12.7483   39.0876   32.0751 O   0  0  0  0  0  0  0  0  0  0  0  0
   10.6053   38.1875   31.6657 C   0  0  0  0  0  0  0  0  0  0  0  0
   12.9361   37.6817   32.0289 C   0  0  0  0  0  0  0  0  0  0  0  0
    9.6423   38.0738   30.6445 O   0  0  0  0  0  0  0  0  0  0  0  0
   11.5765   37.0159   31.7046 C   0  0  0  0  0  0  0  0  0  0  0  0
   13.4908   37.2183   33.3237 N   0  0  0  0  0  0  0  0  0  0  0  0
   11.6103   36.3400   30.4680 O   0  0  0  0  0  0  0  0  0  0  0  0
   14.4762   36.3274   33.5728 C   0  0  0  0  0  0  0  0  0  0  0  0
   13.1181   37.6318   34.5689 C   0  0  0  0  0  0  0  0  0  0  0  0
   15.2063   35.6141   32.6739 N   0  0  0  0  0  0  0  0  0  0  0  0
   14.6733   36.2275   34.9182 C   0  0  0  0  0  0  0  0  0  0  0  0
   13.8226   37.0457   35.5784 N   0  0  0  0  0  0  0  0  0  0  0  0
   16.1635   34.7595   33.1546 C   0  0  0  0  0  0  0  0  0  0  0  0
   15.6515   35.3492   35.4130 C   0  0  0  0  0  0  0  0  0  0  0  0
   16.3791   34.6310   34.5041 N   0  0  0  0  0  0  0  0  0  0  0  0
   15.9002   35.1934   36.8089 N   0  0  0  0  0  0  0  0  0  0  0  0
    9.8512   44.9863   32.1472 H   0  0  0  0  0  0  0  0  0  0  0  0
   10.8910   46.9158   32.9473 H   0  0  0  0  0  0  0  0  0  0  0  0
   11.1184   46.2967   34.4945 H   0  0  0  0  0  0  0  0  0  0  0  0
    7.7858   45.1651   33.2375 H   0  0  0  0  0  0  0  0  0  0  0  0
    8.5348   46.7520   33.5639 H   0  0  0  0  0  0  0  0  0  0  0  0
    8.9645   44.3134   37.7098 H   0  0  0  0  0  0  0  0  0  0  0  0
    8.5950   46.0516   38.0020 H   0  0  0  0  0  0  0  0  0  0  0  0
   11.3817   43.5525   37.6054 H   0  0  0  0  0  0  0  0  0  0  0  0
   10.3168   47.5319   38.8890 H   0  0  0  0  0  0  0  0  0  0  0  0
   13.6210   43.8389   38.6081 H   0  0  0  0  0  0  0  0  0  0  0  0
   12.5600   47.7994   39.8863 H   0  0  0  0  0  0  0  0  0  0  0  0
   14.2136   45.9572   39.7520 H   0  0  0  0  0  0  0  0  0  0  0  0
    9.8306   40.7373   31.7556 H   0  0  0  0  0  0  0  0  0  0  0  0
   11.3988   41.5437   31.4728 H   0  0  0  0  0  0  0  0  0  0  0  0
   11.7001   39.5048   30.3475 H   0  0  0  0  0  0  0  0  0  0  0  0
   10.1103   38.2618   32.6637 H   0  0  0  0  0  0  0  0  0  0  0  0
   13.6696   37.4588   31.2223 H   0  0  0  0  0  0  0  0  0  0  0  0
    8.9000   38.6882   30.8814 H   0  0  0  0  0  0  0  0  0  0  0  0
   11.2690   36.3069   32.5091 H   0  0  0  0  0  0  0  0  0  0  0  0
   12.1427   35.5152   30.6153 H   0  0  0  0  0  0  0  0  0  0  0  0
   12.3359   38.3594   34.7445 H   0  0  0  0  0  0  0  0  0  0  0  0
   16.7569   34.1789   32.4618 H   0  0  0  0  0  0  0  0  0  0  0  0
   16.6362   34.5315   37.1414 H   0  0  0  0  0  0  0  0  0  0  0  0
   15.3531   35.7357   37.5138 H   0  0  0  0  0  0  0  0  0  0  0  0
  1  2  2  0
  1  3  1  0
  3  4  1  0
  4  5  1  0
  6  1  1  0
  7  6  1  0
  6  8  1  0
  8  9  1  0
  9 10  1  0
  9 11  2  0
 10 12  1  0
 12 13  1  0
 13 14  2  0
 15 13  1  0
 14 16  1  0
 17 15  2  0
 16 18  2  0
 18 17  1  0
  4 19  2  0
  4 20  1  0
 21 20  1  0
 21 22  1  0
 22 23  1  0
 22 24  1  0
 23 25  1  0
 24 26  1  0
 24 27  1  0
 27 25  1  0
 25 28  1  0
 27 29  1  0
 30 28  1  0
 31 28  1  0
 32 30  2  0
 30 33  1  0
 34 31  2  0
 35 32  1  0
 33 36  2  0
 33 34  1  0
 37 35  2  0
 37 36  1  0
 36 38  1  0
  6 39  1  6
  7 40  1  0
  7 41  1  0
  8 42  1  0
  8 43  1  0
 12 44  1  0
 12 45  1  0
 14 46  1  0
 15 47  1  0
 16 48  1  0
 17 49  1  0
 18 50  1  0
 21 51  1  0
 21 52  1  0
 22 53  1  0
 24 54  1  0
 25 55  1  0
 26 56  1  0
 27 57  1  0
 29 58  1  0
 31 59  1  0
 35 60  1  0
 38 61  1  0
 38 62  1  0
M  CHG  1   5  -1
M  END
>  <EmbedRMS>  (301) 
0.089161312040066

$$$$

     RDKit          3D

 62 65  0  0  0  0  0  0  0  0999 V2000
   10.2829   43.7723   33.8125 C   0  0  0  0  0  0  0  0  0  0  0  0
   11.4071   43.5830   34.3637 O   0  0  0  0  0  0  0  0  0  0  0  0
    9.3687   42.7289   33.6987 O   0  0  0  0  0  0  0  0  0  0  0  0
    9.8859   41.2321   34.2828 P   0  0  0  0  0  5  0  0  0  0  0  0
   10.3662   41.4679   35.8735 O   0  0  0  0  0  1  0  0  0  0  0  0
    9.9560   45.1186   33.2541 C   0  0  2  0  0  0  0  0  0  0  0  0
   11.0715   46.0431   33.4678 N   0  0  0  0  0  0  0  0  0  0  0  0
    8.6827   45.7074   33.8946 C   0  0  0  0  0  0  0  0  0  0  0  0
    7.4259   45.0424   33.3922 C   0  0  0  0  0  0  0  0  0  0  0  0
    6.8335   45.3687   32.1632 O   0  0  0  0  0  0  0  0  0  0  0  0
    6.9010   44.1332   34.0875 O   0  0  0  0  0  0  0  0  0  0  0  0
    7.1891   46.4884   31.3514 C   0  0  0  0  0  0  0  0  0  0  0  0
    6.6776   47.7703   31.9527 C   0  0  0  0  0  0  0  0  0  0  0  0
    7.5299   48.8774   32.1045 C   0  0  0  0  0  0  0  0  0  0  0  0
    5.3289   47.8840   32.3295 C   0  0  0  0  0  0  0  0  0  0  0  0
    7.0441   50.0707   32.6483 C   0  0  0  0  0  0  0  0  0  0  0  0
    4.8472   49.0793   32.8723 C   0  0  0  0  0  0  0  0  0  0  0  0
    5.7046   50.1710   33.0336 C   0  0  0  0  0  0  0  0  0  0  0  0
    8.8076   40.1902   34.2074 O   0  0  0  0  0  0  0  0  0  0  0  0
   11.2375   40.7891   33.3660 O   0  0  0  0  0  0  0  0  0  0  0  0
   10.9148   40.6848   31.9931 C   0  0  0  0  0  0  0  0  0  0  0  0
   11.5168   39.3772   31.4391 C   0  0  0  0  0  0  0  0  0  0  0  0
   12.7474   39.0853   32.0736 O   0  0  0  0  0  0  0  0  0  0  0  0
   10.6048   38.1867   31.6669 C   0  0  0  0  0  0  0  0  0  0  0  0
   12.9346   37.6789   32.0281 C   0  0  0  0  0  0  0  0  0  0  0  0
    9.6378   38.0917   30.6488 O   0  0  0  0  0  0  0  0  0  0  0  0
   11.5761   37.0128   31.7056 C   0  0  0  0  0  0  0  0  0  0  0  0
   13.4909   37.2177   33.3233 N   0  0  0  0  0  0  0  0  0  0  0  0
   11.6233   36.3370   30.4683 O   0  0  0  0  0  0  0  0  0  0  0  0
   14.4765   36.3271   33.5727 C   0  0  0  0  0  0  0  0  0  0  0  0
   13.1182   37.6315   34.5685 C   0  0  0  0  0  0  0  0  0  0  0  0
   15.2066   35.6137   32.6739 N   0  0  0  0  0  0  0  0  0  0  0  0
   14.6736   36.2276   34.9182 C   0  0  0  0  0  0  0  0  0  0  0  0
   13.8227   37.0457   35.5781 N   0  0  0  0  0  0  0  0  0  0  0  0
   16.1638   34.7592   33.1548 C   0  0  0  0  0  0  0  0  0  0  0  0
   15.6517   35.3493   35.4131 C   0  0  0  0  0  0  0  0  0  0  0  0
   16.3793   34.6309   34.5043 N   0  0  0  0  0  0  0  0  0  0  0  0
   15.9002   35.1934   36.8090 N   0  0  0  0  0  0  0  0  0  0  0  0
    9.8031   45.0072   32.1589 H   0  0  0  0  0  0  0  0  0  0  0  0
   11.9207   45.6880   32.9696 H   0  0  0  0  0  0  0  0  0  0  0  0
   11.2902   46.1164   34.4892 H   0  0  0  0  0  0  0  0  0  0  0  0
    8.6286   46.7944   33.6846 H   0  0  0  0  0  0  0  0  0  0  0  0
    8.7395   45.6091   35.0016 H   0  0  0  0  0  0  0  0  0  0  0  0
    8.2873   46.5176   31.1918 H   0  0  0  0  0  0  0  0  0  0  0  0
    6.7188   46.3614   30.3540 H   0  0  0  0  0  0  0  0  0  0  0  0
    8.5696   48.8162   31.8077 H   0  0  0  0  0  0  0  0  0  0  0  0
    4.6528   47.0473   32.2043 H   0  0  0  0  0  0  0  0  0  0  0  0
    7.7061   50.9184   32.7692 H   0  0  0  0  0  0  0  0  0  0  0  0
    3.8086   49.1598   33.1659 H   0  0  0  0  0  0  0  0  0  0  0  0
    5.3302   51.0957   33.4535 H   0  0  0  0  0  0  0  0  0  0  0  0
    9.8248   40.7215   31.7561 H   0  0  0  0  0  0  0  0  0  0  0  0
   11.3882   41.5414   31.4674 H   0  0  0  0  0  0  0  0  0  0  0  0
   11.6987   39.5012   30.3465 H   0  0  0  0  0  0  0  0  0  0  0  0
   10.1097   38.2771   32.6628 H   0  0  0  0  0  0  0  0  0  0  0  0
   13.6672   37.4542   31.2212 H   0  0  0  0  0  0  0  0  0  0  0  0
    8.9779   37.4158   30.9534 H   0  0  0  0  0  0  0  0  0  0  0  0
   11.2860   36.3041   32.5176 H   0  0  0  0  0  0  0  0  0  0  0  0
   10.8689   35.6918   30.4657 H   0  0  0  0  0  0  0  0  0  0  0  0
   12.3355   38.3586   34.7439 H   0  0  0  0  0  0  0  0  0  0  0  0
   16.7572   34.1786   32.4621 H   0  0  0  0  0  0  0  0  0  0  0  0
   15.3530   35.7358   37.5138 H   0  0  0  0  0  0  0  0  0  0  0  0
   16.6361   34.5315   37.1415 H   0  0  0  0  0  0  0  0  0  0  0  0
  1  2  2  0
  1  3  1  0
  3  4  1  0
  4  5  1  0
  6  1  1  0
  7  6  1  0
  6  8  1  0
  8  9  1  0
  9 10  1  0
  9 11  2  0
 10 12  1  0
 12 13  1  0
 13 14  2  0
 15 13  1  0
 14 16  1  0
 17 15  2  0
 16 18  2  0
 18 17  1  0
  4 19  2  0
  4 20  1  0
 21 20  1  0
 21 22  1  0
 22 23  1  0
 22 24  1  0
 23 25  1  0
 24 26  1  0
 24 27  1  0
 27 25  1  0
 25 28  1  0
 27 29  1  0
 30 28  1  0
 31 28  1  0
 32 30  2  0
 30 33  1  0
 34 31  2  0
 35 32  1  0
 33 36  2  0
 33 34  1  0
 37 35  2  0
 37 36  1  0
 36 38  1  0
  6 39  1  6
  7 40  1  0
  7 41  1  0
  8 42  1  0
  8 43  1  0
 12 44  1  0
 12 45  1  0
 14 46  1  0
 15 47  1  0
 16 48  1  0
 17 49  1  0
 18 50  1  0
 21 51  1  0
 21 52  1  0
 22 53  1  0
 24 54  1  0
 25 55  1  0
 26 56  1  0
 27 57  1  0
 29 58  1  0
 31 59  1  0
 35 60  1  0
 38 61  1  0
 38 62  1  0
M  CHG  1   5  -1
M  END
>  <EmbedRMS>  (302) 
0.08972573945137097

$$$$

     RDKit          3D

 62 65  0  0  0  0  0  0  0  0999 V2000
   10.2810   43.7758   33.8110 C   0  0  0  0  0  0  0  0  0  0  0  0
   11.4041   43.5925   34.3666 O   0  0  0  0  0  0  0  0  0  0  0  0
    9.3695   42.7290   33.6994 O   0  0  0  0  0  0  0  0  0  0  0  0
    9.8866   41.2332   34.2839 P   0  0  0  0  0  5  0  0  0  0  0  0
   10.3662   41.4690   35.8746 O   0  0  0  0  0  1  0  0  0  0  0  0
    9.9492   45.1196   33.2513 C   0  0  2  0  0  0  0  0  0  0  0  0
   11.0777   46.0257   33.4715 N   0  0  0  0  0  0  0  0  0  0  0  0
    8.6831   45.7049   33.9166 C   0  0  0  0  0  0  0  0  0  0  0  0
    7.4382   44.9190   33.6185 C   0  0  0  0  0  0  0  0  0  0  0  0
    7.2972   44.2716   32.3873 O   0  0  0  0  0  0  0  0  0  0  0  0
    6.5110   44.8782   34.4725 O   0  0  0  0  0  0  0  0  0  0  0  0
    6.1722   43.4637   32.0637 C   0  0  0  0  0  0  0  0  0  0  0  0
    6.4352   42.7594   30.7660 C   0  0  0  0  0  0  0  0  0  0  0  0
    7.0563   41.4993   30.7588 C   0  0  0  0  0  0  0  0  0  0  0  0
    6.1374   43.3883   29.5462 C   0  0  0  0  0  0  0  0  0  0  0  0
    7.3510   40.8672   29.5468 C   0  0  0  0  0  0  0  0  0  0  0  0
    6.4324   42.7519   28.3362 C   0  0  0  0  0  0  0  0  0  0  0  0
    7.0375   41.4918   28.3365 C   0  0  0  0  0  0  0  0  0  0  0  0
    8.8084   40.1910   34.2075 O   0  0  0  0  0  0  0  0  0  0  0  0
   11.2382   40.7903   33.3681 O   0  0  0  0  0  0  0  0  0  0  0  0
   10.9165   40.6900   31.9952 C   0  0  0  0  0  0  0  0  0  0  0  0
   11.5271   39.3899   31.4368 C   0  0  0  0  0  0  0  0  0  0  0  0
   12.7509   39.0916   32.0833 O   0  0  0  0  0  0  0  0  0  0  0  0
   10.6121   38.1919   31.6452 C   0  0  0  0  0  0  0  0  0  0  0  0
   12.9427   37.6852   32.0294 C   0  0  0  0  0  0  0  0  0  0  0  0
    9.6071   38.0848   30.6605 O   0  0  0  0  0  0  0  0  0  0  0  0
   11.5841   37.0188   31.6882 C   0  0  0  0  0  0  0  0  0  0  0  0
   13.4898   37.2164   33.3250 N   0  0  0  0  0  0  0  0  0  0  0  0
   11.6197   36.3063   30.4697 O   0  0  0  0  0  0  0  0  0  0  0  0
   14.4758   36.3264   33.5738 C   0  0  0  0  0  0  0  0  0  0  0  0
   13.1175   37.6308   34.5699 C   0  0  0  0  0  0  0  0  0  0  0  0
   15.2064   35.6139   32.6746 N   0  0  0  0  0  0  0  0  0  0  0  0
   14.6731   36.2268   34.9191 C   0  0  0  0  0  0  0  0  0  0  0  0
   13.8224   37.0451   35.5792 N   0  0  0  0  0  0  0  0  0  0  0  0
   16.1639   34.7595   33.1550 C   0  0  0  0  0  0  0  0  0  0  0  0
   15.6518   35.3488   35.4136 C   0  0  0  0  0  0  0  0  0  0  0  0
   16.3795   34.6309   34.5045 N   0  0  0  0  0  0  0  0  0  0  0  0
   15.9007   35.1929   36.8093 N   0  0  0  0  0  0  0  0  0  0  0  0
    9.7790   45.0163   32.1556 H   0  0  0  0  0  0  0  0  0  0  0  0
   10.8360   46.9621   33.0723 H   0  0  0  0  0  0  0  0  0  0  0  0
   11.8897   45.6868   32.9042 H   0  0  0  0  0  0  0  0  0  0  0  0
    8.8351   45.7590   35.0175 H   0  0  0  0  0  0  0  0  0  0  0  0
    8.5182   46.7401   33.5485 H   0  0  0  0  0  0  0  0  0  0  0  0
    5.9984   42.7180   32.8706 H   0  0  0  0  0  0  0  0  0  0  0  0
    5.2654   44.1013   31.9820 H   0  0  0  0  0  0  0  0  0  0  0  0
    7.3124   41.0085   31.6895 H   0  0  0  0  0  0  0  0  0  0  0  0
    5.6808   44.3704   29.5325 H   0  0  0  0  0  0  0  0  0  0  0  0
    7.8248   39.8947   29.5453 H   0  0  0  0  0  0  0  0  0  0  0  0
    6.1969   43.2380   27.3982 H   0  0  0  0  0  0  0  0  0  0  0  0
    7.2675   41.0016   27.3993 H   0  0  0  0  0  0  0  0  0  0  0  0
    9.8275   40.7191   31.7580 H   0  0  0  0  0  0  0  0  0  0  0  0
   11.3830   41.5529   31.4735 H   0  0  0  0  0  0  0  0  0  0  0  0
   11.7318   39.5338   30.3513 H   0  0  0  0  0  0  0  0  0  0  0  0
   10.1211   38.2693   32.6410 H   0  0  0  0  0  0  0  0  0  0  0  0
   13.6876   37.4702   31.2317 H   0  0  0  0  0  0  0  0  0  0  0  0
   10.0247   38.1789   29.7658 H   0  0  0  0  0  0  0  0  0  0  0  0
   11.2789   36.3129   32.4920 H   0  0  0  0  0  0  0  0  0  0  0  0
   11.9849   36.9104   29.7713 H   0  0  0  0  0  0  0  0  0  0  0  0
   12.3366   38.3598   34.7453 H   0  0  0  0  0  0  0  0  0  0  0  0
   16.7575   34.1794   32.4620 H   0  0  0  0  0  0  0  0  0  0  0  0
   16.6369   34.5313   37.1416 H   0  0  0  0  0  0  0  0  0  0  0  0
   15.3534   35.7348   37.5144 H   0  0  0  0  0  0  0  0  0  0  0  0
  1  2  2  0
  1  3  1  0
  3  4  1  0
  4  5  1  0
  6  1  1  0
  7  6  1  0
  6  8  1  0
  8  9  1  0
  9 10  1  0
  9 11  2  0
 10 12  1  0
 12 13  1  0
 13 14  2  0
 15 13  1  0
 14 16  1  0
 17 15  2  0
 16 18  2  0
 18 17  1  0
  4 19  2  0
  4 20  1  0
 21 20  1  0
 21 22  1  0
 22 23  1  0
 22 24  1  0
 23 25  1  0
 24 26  1  0
 24 27  1  0
 27 25  1  0
 25 28  1  0
 27 29  1  0
 30 28  1  0
 31 28  1  0
 32 30  2  0
 30 33  1  0
 34 31  2  0
 35 32  1  0
 33 36  2  0
 33 34  1  0
 37 35  2  0
 37 36  1  0
 36 38  1  0
  6 39  1  6
  7 40  1  0
  7 41  1  0
  8 42  1  0
  8 43  1  0
 12 44  1  0
 12 45  1  0
 14 46  1  0
 15 47  1  0
 16 48  1  0
 17 49  1  0
 18 50  1  0
 21 51  1  0
 21 52  1  0
 22 53  1  0
 24 54  1  0
 25 55  1  0
 26 56  1  0
 27 57  1  0
 29 58  1  0
 31 59  1  0
 35 60  1  0
 38 61  1  0
 38 62  1  0
M  CHG  1   5  -1
M  END
>  <EmbedRMS>  (303) 
0.08736006088588559

$$$$

     RDKit          3D

 62 65  0  0  0  0  0  0  0  0999 V2000
   10.2829   43.7754   33.8076 C   0  0  0  0  0  0  0  0  0  0  0  0
   11.4086   43.5914   34.3578 O   0  0  0  0  0  0  0  0  0  0  0  0
    9.3669   42.7317   33.7011 O   0  0  0  0  0  0  0  0  0  0  0  0
    9.8865   41.2344   34.2838 P   0  0  0  0  0  5  0  0  0  0  0  0
   10.3666   41.4694   35.8744 O   0  0  0  0  0  1  0  0  0  0  0  0
    9.9535   45.1117   33.2433 C   0  0  2  0  0  0  0  0  0  0  0  0
   11.0725   46.0268   33.4849 N   0  0  0  0  0  0  0  0  0  0  0  0
    8.6399   45.6441   33.8539 C   0  0  0  0  0  0  0  0  0  0  0  0
    8.2242   46.9354   33.2212 C   0  0  0  0  0  0  0  0  0  0  0  0
    8.5456   48.1440   33.8492 O   0  0  0  0  0  0  0  0  0  0  0  0
    7.6236   46.9238   32.1121 O   0  0  0  0  0  0  0  0  0  0  0  0
    8.1845   49.4193   33.3238 C   0  0  0  0  0  0  0  0  0  0  0  0
    6.7045   49.6468   33.4680 C   0  0  0  0  0  0  0  0  0  0  0  0
    6.1401   49.7977   34.7451 C   0  0  0  0  0  0  0  0  0  0  0  0
    5.8713   49.6836   32.3374 C   0  0  0  0  0  0  0  0  0  0  0  0
    4.7625   49.9911   34.8878 C   0  0  0  0  0  0  0  0  0  0  0  0
    4.4940   49.8771   32.4845 C   0  0  0  0  0  0  0  0  0  0  0  0
    3.9402   50.0314   33.7584 C   0  0  0  0  0  0  0  0  0  0  0  0
    8.8091   40.1914   34.2078 O   0  0  0  0  0  0  0  0  0  0  0  0
   11.2390   40.7909   33.3682 O   0  0  0  0  0  0  0  0  0  0  0  0
   10.9194   40.6896   31.9946 C   0  0  0  0  0  0  0  0  0  0  0  0
   11.5171   39.3801   31.4397 C   0  0  0  0  0  0  0  0  0  0  0  0
   12.7478   39.0861   32.0734 O   0  0  0  0  0  0  0  0  0  0  0  0
   10.6031   38.1891   31.6666 C   0  0  0  0  0  0  0  0  0  0  0  0
   12.9335   37.6796   32.0279 C   0  0  0  0  0  0  0  0  0  0  0  0
    9.6397   38.0777   30.6457 O   0  0  0  0  0  0  0  0  0  0  0  0
   11.5739   37.0154   31.7057 C   0  0  0  0  0  0  0  0  0  0  0  0
   13.4903   37.2178   33.3231 N   0  0  0  0  0  0  0  0  0  0  0  0
   11.6211   36.3376   30.4695 O   0  0  0  0  0  0  0  0  0  0  0  0
   14.4761   36.3273   33.5725 C   0  0  0  0  0  0  0  0  0  0  0  0
   13.1179   37.6316   34.5684 C   0  0  0  0  0  0  0  0  0  0  0  0
   15.2063   35.6139   32.6737 N   0  0  0  0  0  0  0  0  0  0  0  0
   14.6734   36.2277   34.9180 C   0  0  0  0  0  0  0  0  0  0  0  0
   13.8225   37.0459   35.5779 N   0  0  0  0  0  0  0  0  0  0  0  0
   16.1636   34.7594   33.1546 C   0  0  0  0  0  0  0  0  0  0  0  0
   15.6515   35.3494   35.4129 C   0  0  0  0  0  0  0  0  0  0  0  0
   16.3791   34.6311   34.5041 N   0  0  0  0  0  0  0  0  0  0  0  0
   15.9001   35.1935   36.8088 N   0  0  0  0  0  0  0  0  0  0  0  0
    9.8210   44.9852   32.1455 H   0  0  0  0  0  0  0  0  0  0  0  0
   11.0772   46.3245   34.4884 H   0  0  0  0  0  0  0  0  0  0  0  0
   10.9421   46.8852   32.9021 H   0  0  0  0  0  0  0  0  0  0  0  0
    8.7578   45.7912   34.9498 H   0  0  0  0  0  0  0  0  0  0  0  0
    7.8251   44.9025   33.7021 H   0  0  0  0  0  0  0  0  0  0  0  0
    8.5105   49.4983   32.2633 H   0  0  0  0  0  0  0  0  0  0  0  0
    8.7262   50.2038   33.8932 H   0  0  0  0  0  0  0  0  0  0  0  0
    6.7670   49.7636   35.6277 H   0  0  0  0  0  0  0  0  0  0  0  0
    6.2854   49.5607   31.3443 H   0  0  0  0  0  0  0  0  0  0  0  0
    4.3323   50.1079   35.8741 H   0  0  0  0  0  0  0  0  0  0  0  0
    3.8558   49.9056   31.6108 H   0  0  0  0  0  0  0  0  0  0  0  0
    2.8740   50.1804   33.8705 H   0  0  0  0  0  0  0  0  0  0  0  0
   11.4008   41.5437   31.4722 H   0  0  0  0  0  0  0  0  0  0  0  0
    9.8315   40.7396   31.7549 H   0  0  0  0  0  0  0  0  0  0  0  0
   11.6983   39.5041   30.3470 H   0  0  0  0  0  0  0  0  0  0  0  0
   10.1090   38.2632   32.6650 H   0  0  0  0  0  0  0  0  0  0  0  0
   13.6656   37.4541   31.2207 H   0  0  0  0  0  0  0  0  0  0  0  0
    8.8965   38.6900   30.8852 H   0  0  0  0  0  0  0  0  0  0  0  0
   11.2846   36.3060   32.5175 H   0  0  0  0  0  0  0  0  0  0  0  0
   10.8523   35.7094   30.4590 H   0  0  0  0  0  0  0  0  0  0  0  0
   12.3353   38.3588   34.7439 H   0  0  0  0  0  0  0  0  0  0  0  0
   16.7570   34.1788   32.4619 H   0  0  0  0  0  0  0  0  0  0  0  0
   15.3529   35.7359   37.5136 H   0  0  0  0  0  0  0  0  0  0  0  0
   16.6360   34.5317   37.1413 H   0  0  0  0  0  0  0  0  0  0  0  0
  1  2  2  0
  1  3  1  0
  3  4  1  0
  4  5  1  0
  6  1  1  0
  7  6  1  0
  6  8  1  0
  8  9  1  0
  9 10  1  0
  9 11  2  0
 10 12  1  0
 12 13  1  0
 13 14  2  0
 15 13  1  0
 14 16  1  0
 17 15  2  0
 16 18  2  0
 18 17  1  0
  4 19  2  0
  4 20  1  0
 21 20  1  0
 21 22  1  0
 22 23  1  0
 22 24  1  0
 23 25  1  0
 24 26  1  0
 24 27  1  0
 27 25  1  0
 25 28  1  0
 27 29  1  0
 30 28  1  0
 31 28  1  0
 32 30  2  0
 30 33  1  0
 34 31  2  0
 35 32  1  0
 33 36  2  0
 33 34  1  0
 37 35  2  0
 37 36  1  0
 36 38  1  0
  6 39  1  6
  7 40  1  0
  7 41  1  0
  8 42  1  0
  8 43  1  0
 12 44  1  0
 12 45  1  0
 14 46  1  0
 15 47  1  0
 16 48  1  0
 17 49  1  0
 18 50  1  0
 21 51  1  0
 21 52  1  0
 22 53  1  0
 24 54  1  0
 25 55  1  0
 26 56  1  0
 27 57  1  0
 29 58  1  0
 31 59  1  0
 35 60  1  0
 38 61  1  0
 38 62  1  0
M  CHG  1   5  -1
M  END
>  <EmbedRMS>  (304) 
0.08916770811056932

$$$$

     RDKit          3D

 62 65  0  0  0  0  0  0  0  0999 V2000
   10.2877   43.7688   33.8086 C   0  0  0  0  0  0  0  0  0  0  0  0
   11.4116   43.5793   34.3596 O   0  0  0  0  0  0  0  0  0  0  0  0
    9.3667   42.7304   33.7018 O   0  0  0  0  0  0  0  0  0  0  0  0
    9.8841   41.2327   34.2845 P   0  0  0  0  0  5  0  0  0  0  0  0
   10.3649   41.4681   35.8749 O   0  0  0  0  0  1  0  0  0  0  0  0
    9.9639   45.1116   33.2468 C   0  0  2  0  0  0  0  0  0  0  0  0
   11.0620   46.0542   33.4765 N   0  0  0  0  0  0  0  0  0  0  0  0
    8.6425   45.6682   33.8107 C   0  0  0  0  0  0  0  0  0  0  0  0
    8.6688   45.8314   35.3017 C   0  0  0  0  0  0  0  0  0  0  0  0
    9.0926   47.0453   35.8539 O   0  0  0  0  0  0  0  0  0  0  0  0
    8.3414   44.8649   36.0432 O   0  0  0  0  0  0  0  0  0  0  0  0
    9.1501   47.2886   37.2576 C   0  0  0  0  0  0  0  0  0  0  0  0
    7.7633   47.4212   37.8252 C   0  0  0  0  0  0  0  0  0  0  0  0
    7.2444   46.4399   38.6866 C   0  0  0  0  0  0  0  0  0  0  0  0
    6.9641   48.5208   37.4726 C   0  0  0  0  0  0  0  0  0  0  0  0
    5.9468   46.5636   39.1932 C   0  0  0  0  0  0  0  0  0  0  0  0
    5.6672   48.6408   37.9816 C   0  0  0  0  0  0  0  0  0  0  0  0
    5.1591   47.6634   38.8417 C   0  0  0  0  0  0  0  0  0  0  0  0
    8.8064   40.1902   34.2084 O   0  0  0  0  0  0  0  0  0  0  0  0
   11.2363   40.7891   33.3687 O   0  0  0  0  0  0  0  0  0  0  0  0
   10.9157   40.6888   31.9954 C   0  0  0  0  0  0  0  0  0  0  0  0
   11.5251   39.3872   31.4365 C   0  0  0  0  0  0  0  0  0  0  0  0
   12.7485   39.0879   32.0803 O   0  0  0  0  0  0  0  0  0  0  0  0
   10.6100   38.1909   31.6470 C   0  0  0  0  0  0  0  0  0  0  0  0
   12.9348   37.6808   32.0292 C   0  0  0  0  0  0  0  0  0  0  0  0
    9.6126   38.0874   30.6546 O   0  0  0  0  0  0  0  0  0  0  0  0
   11.5767   37.0133   31.7025 C   0  0  0  0  0  0  0  0  0  0  0  0
   13.4901   37.2165   33.3236 N   0  0  0  0  0  0  0  0  0  0  0  0
   11.6322   36.3231   30.4741 O   0  0  0  0  0  0  0  0  0  0  0  0
   14.4763   36.3266   33.5727 C   0  0  0  0  0  0  0  0  0  0  0  0
   13.1179   37.6307   34.5689 C   0  0  0  0  0  0  0  0  0  0  0  0
   15.2065   35.6135   32.6738 N   0  0  0  0  0  0  0  0  0  0  0  0
   14.6736   36.2272   34.9182 C   0  0  0  0  0  0  0  0  0  0  0  0
   13.8228   37.0453   35.5783 N   0  0  0  0  0  0  0  0  0  0  0  0
   16.1640   34.7592   33.1547 C   0  0  0  0  0  0  0  0  0  0  0  0
   15.6518   35.3491   35.4130 C   0  0  0  0  0  0  0  0  0  0  0  0
   16.3795   34.6309   34.5042 N   0  0  0  0  0  0  0  0  0  0  0  0
   15.9005   35.1933   36.8089 N   0  0  0  0  0  0  0  0  0  0  0  0
    9.8334   44.9916   32.1488 H   0  0  0  0  0  0  0  0  0  0  0  0
   11.3017   46.0983   34.4943 H   0  0  0  0  0  0  0  0  0  0  0  0
   11.9101   45.7267   32.9582 H   0  0  0  0  0  0  0  0  0  0  0  0
    8.4357   46.6557   33.3444 H   0  0  0  0  0  0  0  0  0  0  0  0
    7.8033   44.9946   33.5299 H   0  0  0  0  0  0  0  0  0  0  0  0
    9.7229   46.4778   37.7592 H   0  0  0  0  0  0  0  0  0  0  0  0
    9.7020   48.2364   37.4310 H   0  0  0  0  0  0  0  0  0  0  0  0
    7.8411   45.5798   38.9638 H   0  0  0  0  0  0  0  0  0  0  0  0
    7.3457   49.2819   36.8031 H   0  0  0  0  0  0  0  0  0  0  0  0
    5.5512   45.8058   39.8571 H   0  0  0  0  0  0  0  0  0  0  0  0
    5.0554   49.4907   37.7077 H   0  0  0  0  0  0  0  0  0  0  0  0
    4.1548   47.7572   39.2342 H   0  0  0  0  0  0  0  0  0  0  0  0
    9.8258   40.7204   31.7576 H   0  0  0  0  0  0  0  0  0  0  0  0
   11.3847   41.5506   31.4742 H   0  0  0  0  0  0  0  0  0  0  0  0
   11.7272   39.5288   30.3502 H   0  0  0  0  0  0  0  0  0  0  0  0
   10.1122   38.2730   32.6390 H   0  0  0  0  0  0  0  0  0  0  0  0
   13.6685   37.4592   31.2224 H   0  0  0  0  0  0  0  0  0  0  0  0
   10.0514   38.1110   29.7648 H   0  0  0  0  0  0  0  0  0  0  0  0
   11.2802   36.3128   32.5195 H   0  0  0  0  0  0  0  0  0  0  0  0
   10.8625   35.6960   30.4645 H   0  0  0  0  0  0  0  0  0  0  0  0
   12.3356   38.3581   34.7445 H   0  0  0  0  0  0  0  0  0  0  0  0
   16.7575   34.1787   32.4619 H   0  0  0  0  0  0  0  0  0  0  0  0
   15.3532   35.7355   37.5138 H   0  0  0  0  0  0  0  0  0  0  0  0
   16.6364   34.5315   37.1415 H   0  0  0  0  0  0  0  0  0  0  0  0
  1  2  2  0
  1  3  1  0
  3  4  1  0
  4  5  1  0
  6  1  1  0
  7  6  1  0
  6  8  1  0
  8  9  1  0
  9 10  1  0
  9 11  2  0
 10 12  1  0
 12 13  1  0
 13 14  2  0
 15 13  1  0
 14 16  1  0
 17 15  2  0
 16 18  2  0
 18 17  1  0
  4 19  2  0
  4 20  1  0
 21 20  1  0
 21 22  1  0
 22 23  1  0
 22 24  1  0
 23 25  1  0
 24 26  1  0
 24 27  1  0
 27 25  1  0
 25 28  1  0
 27 29  1  0
 30 28  1  0
 31 28  1  0
 32 30  2  0
 30 33  1  0
 34 31  2  0
 35 32  1  0
 33 36  2  0
 33 34  1  0
 37 35  2  0
 37 36  1  0
 36 38  1  0
  6 39  1  6
  7 40  1  0
  7 41  1  0
  8 42  1  0
  8 43  1  0
 12 44  1  0
 12 45  1  0
 14 46  1  0
 15 47  1  0
 16 48  1  0
 17 49  1  0
 18 50  1  0
 21 51  1  0
 21 52  1  0
 22 53  1  0
 24 54  1  0
 25 55  1  0
 26 56  1  0
 27 57  1  0
 29 58  1  0
 31 59  1  0
 35 60  1  0
 38 61  1  0
 38 62  1  0
M  CHG  1   5  -1
M  END
>  <EmbedRMS>  (305) 
0.0887949226921879

$$$$

     RDKit          3D

 62 65  0  0  0  0  0  0  0  0999 V2000
   10.2817   43.7734   33.8045 C   0  0  0  0  0  0  0  0  0  0  0  0
   11.4033   43.5899   34.3636 O   0  0  0  0  0  0  0  0  0  0  0  0
    9.3664   42.7296   33.6979 O   0  0  0  0  0  0  0  0  0  0  0  0
    9.8867   41.2346   34.2849 P   0  0  0  0  0  5  0  0  0  0  0  0
   10.3676   41.4723   35.8748 O   0  0  0  0  0  1  0  0  0  0  0  0
    9.9566   45.1147   33.2386 C   0  0  2  0  0  0  0  0  0  0  0  0
   11.0730   46.0288   33.4874 N   0  0  0  0  0  0  0  0  0  0  0  0
    8.6663   45.6770   33.8727 C   0  0  0  0  0  0  0  0  0  0  0  0
    7.4394   45.0505   33.2823 C   0  0  0  0  0  0  0  0  0  0  0  0
    6.7186   44.1032   34.0198 O   0  0  0  0  0  0  0  0  0  0  0  0
    7.0669   45.3887   32.1257 O   0  0  0  0  0  0  0  0  0  0  0  0
    5.5673   43.4238   33.5198 C   0  0  0  0  0  0  0  0  0  0  0  0
    5.9582   42.1100   32.8969 C   0  0  0  0  0  0  0  0  0  0  0  0
    5.6754   40.9001   33.5547 C   0  0  0  0  0  0  0  0  0  0  0  0
    6.6083   42.0772   31.6514 C   0  0  0  0  0  0  0  0  0  0  0  0
    6.0216   39.6795   32.9665 C   0  0  0  0  0  0  0  0  0  0  0  0
    6.9623   40.8546   31.0721 C   0  0  0  0  0  0  0  0  0  0  0  0
    6.6664   39.6568   31.7274 C   0  0  0  0  0  0  0  0  0  0  0  0
    8.8137   40.1882   34.2134 O   0  0  0  0  0  0  0  0  0  0  0  0
   11.2379   40.7915   33.3687 O   0  0  0  0  0  0  0  0  0  0  0  0
   10.9148   40.6900   31.9962 C   0  0  0  0  0  0  0  0  0  0  0  0
   11.5263   39.3903   31.4375 C   0  0  0  0  0  0  0  0  0  0  0  0
   12.7501   39.0918   32.0841 O   0  0  0  0  0  0  0  0  0  0  0  0
   10.6113   38.1921   31.6447 C   0  0  0  0  0  0  0  0  0  0  0  0
   12.9422   37.6855   32.0296 C   0  0  0  0  0  0  0  0  0  0  0  0
    9.6075   38.0857   30.6586 O   0  0  0  0  0  0  0  0  0  0  0  0
   11.5837   37.0191   31.6881 C   0  0  0  0  0  0  0  0  0  0  0  0
   13.4895   37.2164   33.3249 N   0  0  0  0  0  0  0  0  0  0  0  0
   11.6196   36.3064   30.4697 O   0  0  0  0  0  0  0  0  0  0  0  0
   14.4757   36.3264   33.5738 C   0  0  0  0  0  0  0  0  0  0  0  0
   13.1173   37.6308   34.5699 C   0  0  0  0  0  0  0  0  0  0  0  0
   15.2064   35.6140   32.6745 N   0  0  0  0  0  0  0  0  0  0  0  0
   14.6730   36.2268   34.9190 C   0  0  0  0  0  0  0  0  0  0  0  0
   13.8223   37.0450   35.5792 N   0  0  0  0  0  0  0  0  0  0  0  0
   16.1639   34.7597   33.1550 C   0  0  0  0  0  0  0  0  0  0  0  0
   15.6517   35.3490   35.4135 C   0  0  0  0  0  0  0  0  0  0  0  0
   16.3794   34.6311   34.5045 N   0  0  0  0  0  0  0  0  0  0  0  0
   15.9005   35.1931   36.8093 N   0  0  0  0  0  0  0  0  0  0  0  0
    9.8192   45.0100   32.1378 H   0  0  0  0  0  0  0  0  0  0  0  0
   10.8405   46.9597   33.0704 H   0  0  0  0  0  0  0  0  0  0  0  0
   11.9050   45.6902   32.9498 H   0  0  0  0  0  0  0  0  0  0  0  0
    8.6020   46.7726   33.6950 H   0  0  0  0  0  0  0  0  0  0  0  0
    8.6771   45.5253   34.9746 H   0  0  0  0  0  0  0  0  0  0  0  0
    5.0185   44.0511   32.7837 H   0  0  0  0  0  0  0  0  0  0  0  0
    4.8713   43.2525   34.3683 H   0  0  0  0  0  0  0  0  0  0  0  0
    5.1820   40.8995   34.5186 H   0  0  0  0  0  0  0  0  0  0  0  0
    6.8351   42.9935   31.1239 H   0  0  0  0  0  0  0  0  0  0  0  0
    5.7968   38.7511   33.4753 H   0  0  0  0  0  0  0  0  0  0  0  0
    7.4647   40.8356   30.1136 H   0  0  0  0  0  0  0  0  0  0  0  0
    6.9369   38.7114   31.2762 H   0  0  0  0  0  0  0  0  0  0  0  0
    9.8250   40.7182   31.7607 H   0  0  0  0  0  0  0  0  0  0  0  0
   11.3798   41.5532   31.4738 H   0  0  0  0  0  0  0  0  0  0  0  0
   11.7315   39.5348   30.3523 H   0  0  0  0  0  0  0  0  0  0  0  0
   10.1187   38.2691   32.6399 H   0  0  0  0  0  0  0  0  0  0  0  0
   13.6873   37.4711   31.2318 H   0  0  0  0  0  0  0  0  0  0  0  0
   10.0259   38.1805   29.7644 H   0  0  0  0  0  0  0  0  0  0  0  0
   11.2784   36.3132   32.4919 H   0  0  0  0  0  0  0  0  0  0  0  0
   11.9854   36.9103   29.7715 H   0  0  0  0  0  0  0  0  0  0  0  0
   12.3362   38.3594   34.7454 H   0  0  0  0  0  0  0  0  0  0  0  0
   16.7575   34.1796   32.4621 H   0  0  0  0  0  0  0  0  0  0  0  0
   15.3532   35.7352   37.5143 H   0  0  0  0  0  0  0  0  0  0  0  0
   16.6368   34.5316   37.1417 H   0  0  0  0  0  0  0  0  0  0  0  0
  1  2  2  0
  1  3  1  0
  3  4  1  0
  4  5  1  0
  6  1  1  0
  7  6  1  0
  6  8  1  0
  8  9  1  0
  9 10  1  0
  9 11  2  0
 10 12  1  0
 12 13  1  0
 13 14  2  0
 15 13  1  0
 14 16  1  0
 17 15  2  0
 16 18  2  0
 18 17  1  0
  4 19  2  0
  4 20  1  0
 21 20  1  0
 21 22  1  0
 22 23  1  0
 22 24  1  0
 23 25  1  0
 24 26  1  0
 24 27  1  0
 27 25  1  0
 25 28  1  0
 27 29  1  0
 30 28  1  0
 31 28  1  0
 32 30  2  0
 30 33  1  0
 34 31  2  0
 35 32  1  0
 33 36  2  0
 33 34  1  0
 37 35  2  0
 37 36  1  0
 36 38  1  0
  6 39  1  6
  7 40  1  0
  7 41  1  0
  8 42  1  0
  8 43  1  0
 12 44  1  0
 12 45  1  0
 14 46  1  0
 15 47  1  0
 16 48  1  0
 17 49  1  0
 18 50  1  0
 21 51  1  0
 21 52  1  0
 22 53  1  0
 24 54  1  0
 25 55  1  0
 26 56  1  0
 27 57  1  0
 29 58  1  0
 31 59  1  0
 35 60  1  0
 38 61  1  0
 38 62  1  0
M  CHG  1   5  -1
M  END
>  <EmbedRMS>  (306) 
0.08630085193426407

$$$$

     RDKit          3D

 62 65  0  0  0  0  0  0  0  0999 V2000
   10.2799   43.7757   33.8090 C   0  0  0  0  0  0  0  0  0  0  0  0
   11.4048   43.5917   34.3610 O   0  0  0  0  0  0  0  0  0  0  0  0
    9.3646   42.7317   33.7048 O   0  0  0  0  0  0  0  0  0  0  0  0
    9.8859   41.2347   34.2852 P   0  0  0  0  0  5  0  0  0  0  0  0
   10.3729   41.4683   35.8733 O   0  0  0  0  0  1  0  0  0  0  0  0
    9.9636   45.1089   33.2228 C   0  0  2  0  0  0  0  0  0  0  0  0
   11.0681   46.0296   33.4979 N   0  0  0  0  0  0  0  0  0  0  0  0
    8.6323   45.6743   33.7716 C   0  0  0  0  0  0  0  0  0  0  0  0
    7.4172   44.9408   33.2471 C   0  0  0  0  0  0  0  0  0  0  0  0
    6.2740   44.7103   34.0265 O   0  0  0  0  0  0  0  0  0  0  0  0
    7.3871   44.5923   32.0369 O   0  0  0  0  0  0  0  0  0  0  0  0
    6.1380   45.0355   35.4090 C   0  0  0  0  0  0  0  0  0  0  0  0
    6.8499   44.0253   36.2681 C   0  0  0  0  0  0  0  0  0  0  0  0
    7.7441   44.4409   37.2690 C   0  0  0  0  0  0  0  0  0  0  0  0
    6.5781   42.6555   36.1144 C   0  0  0  0  0  0  0  0  0  0  0  0
    8.3667   43.4980   38.0928 C   0  0  0  0  0  0  0  0  0  0  0  0
    7.1991   41.7164   36.9434 C   0  0  0  0  0  0  0  0  0  0  0  0
    8.0916   42.1374   37.9327 C   0  0  0  0  0  0  0  0  0  0  0  0
    8.8087   40.1914   34.2111 O   0  0  0  0  0  0  0  0  0  0  0  0
   11.2367   40.7922   33.3676 O   0  0  0  0  0  0  0  0  0  0  0  0
   10.9139   40.6899   31.9953 C   0  0  0  0  0  0  0  0  0  0  0  0
   11.5264   39.3899   31.4373 C   0  0  0  0  0  0  0  0  0  0  0  0
   12.7502   39.0919   32.0841 O   0  0  0  0  0  0  0  0  0  0  0  0
   10.6119   38.1915   31.6452 C   0  0  0  0  0  0  0  0  0  0  0  0
   12.9427   37.6856   32.0296 C   0  0  0  0  0  0  0  0  0  0  0  0
    9.6067   38.0856   30.6603 O   0  0  0  0  0  0  0  0  0  0  0  0
   11.5844   37.0187   31.6880 C   0  0  0  0  0  0  0  0  0  0  0  0
   13.4898   37.2165   33.3250 N   0  0  0  0  0  0  0  0  0  0  0  0
   11.6202   36.3063   30.4693 O   0  0  0  0  0  0  0  0  0  0  0  0
   14.4758   36.3264   33.5738 C   0  0  0  0  0  0  0  0  0  0  0  0
   13.1175   37.6308   34.5699 C   0  0  0  0  0  0  0  0  0  0  0  0
   15.2064   35.6140   32.6746 N   0  0  0  0  0  0  0  0  0  0  0  0
   14.6730   36.2268   34.9190 C   0  0  0  0  0  0  0  0  0  0  0  0
   13.8224   37.0450   35.5792 N   0  0  0  0  0  0  0  0  0  0  0  0
   16.1639   34.7596   33.1551 C   0  0  0  0  0  0  0  0  0  0  0  0
   15.6517   35.3489   35.4136 C   0  0  0  0  0  0  0  0  0  0  0  0
   16.3794   34.6310   34.5045 N   0  0  0  0  0  0  0  0  0  0  0  0
   15.9006   35.1931   36.8094 N   0  0  0  0  0  0  0  0  0  0  0  0
    9.8918   44.9849   32.1198 H   0  0  0  0  0  0  0  0  0  0  0  0
   10.9154   46.9081   32.9506 H   0  0  0  0  0  0  0  0  0  0  0  0
   11.0619   46.2914   34.5116 H   0  0  0  0  0  0  0  0  0  0  0  0
    8.5322   46.7381   33.4674 H   0  0  0  0  0  0  0  0  0  0  0  0
    8.6713   45.6520   34.8781 H   0  0  0  0  0  0  0  0  0  0  0  0
    5.0591   45.0092   35.6690 H   0  0  0  0  0  0  0  0  0  0  0  0
    6.4899   46.0730   35.5974 H   0  0  0  0  0  0  0  0  0  0  0  0
    7.9578   45.4926   37.4140 H   0  0  0  0  0  0  0  0  0  0  0  0
    5.8823   42.3166   35.3570 H   0  0  0  0  0  0  0  0  0  0  0  0
    9.0582   43.8228   38.8594 H   0  0  0  0  0  0  0  0  0  0  0  0
    6.9884   40.6622   36.8187 H   0  0  0  0  0  0  0  0  0  0  0  0
    8.5728   41.4091   38.5725 H   0  0  0  0  0  0  0  0  0  0  0  0
   11.3793   41.5528   31.4726 H   0  0  0  0  0  0  0  0  0  0  0  0
    9.8235   40.7181   31.7595 H   0  0  0  0  0  0  0  0  0  0  0  0
   11.7314   39.5337   30.3519 H   0  0  0  0  0  0  0  0  0  0  0  0
   10.1211   38.2682   32.6412 H   0  0  0  0  0  0  0  0  0  0  0  0
   13.6880   37.4714   31.2319 H   0  0  0  0  0  0  0  0  0  0  0  0
   10.0254   38.1748   29.7656 H   0  0  0  0  0  0  0  0  0  0  0  0
   11.2795   36.3124   32.4916 H   0  0  0  0  0  0  0  0  0  0  0  0
   11.9871   36.9100   29.7715 H   0  0  0  0  0  0  0  0  0  0  0  0
   12.3364   38.3596   34.7454 H   0  0  0  0  0  0  0  0  0  0  0  0
   16.7576   34.1795   32.4622 H   0  0  0  0  0  0  0  0  0  0  0  0
   16.6368   34.5316   37.1418 H   0  0  0  0  0  0  0  0  0  0  0  0
   15.3532   35.7351   37.5143 H   0  0  0  0  0  0  0  0  0  0  0  0
  1  2  2  0
  1  3  1  0
  3  4  1  0
  4  5  1  0
  6  1  1  0
  7  6  1  0
  6  8  1  0
  8  9  1  0
  9 10  1  0
  9 11  2  0
 10 12  1  0
 12 13  1  0
 13 14  2  0
 15 13  1  0
 14 16  1  0
 17 15  2  0
 16 18  2  0
 18 17  1  0
  4 19  2  0
  4 20  1  0
 21 20  1  0
 21 22  1  0
 22 23  1  0
 22 24  1  0
 23 25  1  0
 24 26  1  0
 24 27  1  0
 27 25  1  0
 25 28  1  0
 27 29  1  0
 30 28  1  0
 31 28  1  0
 32 30  2  0
 30 33  1  0
 34 31  2  0
 35 32  1  0
 33 36  2  0
 33 34  1  0
 37 35  2  0
 37 36  1  0
 36 38  1  0
  6 39  1  6
  7 40  1  0
  7 41  1  0
  8 42  1  0
  8 43  1  0
 12 44  1  0
 12 45  1  0
 14 46  1  0
 15 47  1  0
 16 48  1  0
 17 49  1  0
 18 50  1  0
 21 51  1  0
 21 52  1  0
 22 53  1  0
 24 54  1  0
 25 55  1  0
 26 56  1  0
 27 57  1  0
 29 58  1  0
 31 59  1  0
 35 60  1  0
 38 61  1  0
 38 62  1  0
M  CHG  1   5  -1
M  END
>  <EmbedRMS>  (307) 
0.08650768442256031

$$$$

     RDKit          3D

 62 65  0  0  0  0  0  0  0  0999 V2000
   10.2832   43.7751   33.8073 C   0  0  0  0  0  0  0  0  0  0  0  0
   11.4089   43.5906   34.3573 O   0  0  0  0  0  0  0  0  0  0  0  0
    9.3667   42.7319   33.7013 O   0  0  0  0  0  0  0  0  0  0  0  0
    9.8860   41.2347   34.2842 P   0  0  0  0  0  5  0  0  0  0  0  0
   10.3668   41.4698   35.8746 O   0  0  0  0  0  1  0  0  0  0  0  0
    9.9540   45.1120   33.2429 C   0  0  2  0  0  0  0  0  0  0  0  0
   11.0716   46.0275   33.4855 N   0  0  0  0  0  0  0  0  0  0  0  0
    8.6372   45.6448   33.8520 C   0  0  0  0  0  0  0  0  0  0  0  0
    8.1957   46.9363   33.2050 C   0  0  0  0  0  0  0  0  0  0  0  0
    7.9060   48.1026   33.9302 O   0  0  0  0  0  0  0  0  0  0  0  0
    8.0428   46.9616   31.9551 O   0  0  0  0  0  0  0  0  0  0  0  0
    7.9996   48.2460   35.3475 C   0  0  0  0  0  0  0  0  0  0  0  0
    9.4365   48.3096   35.7923 C   0  0  0  0  0  0  0  0  0  0  0  0
    9.8789   47.5416   36.8828 C   0  0  0  0  0  0  0  0  0  0  0  0
   10.3385   49.1734   35.1486 C   0  0  0  0  0  0  0  0  0  0  0  0
   11.2114   47.6141   37.3007 C   0  0  0  0  0  0  0  0  0  0  0  0
   11.6701   49.2425   35.5695 C   0  0  0  0  0  0  0  0  0  0  0  0
   12.1070   48.4614   36.6428 C   0  0  0  0  0  0  0  0  0  0  0  0
    8.8085   40.1916   34.2087 O   0  0  0  0  0  0  0  0  0  0  0  0
   11.2376   40.7907   33.3680 O   0  0  0  0  0  0  0  0  0  0  0  0
   10.9159   40.6890   31.9950 C   0  0  0  0  0  0  0  0  0  0  0  0
   11.5251   39.3873   31.4365 C   0  0  0  0  0  0  0  0  0  0  0  0
   12.7486   39.0880   32.0804 O   0  0  0  0  0  0  0  0  0  0  0  0
   10.6100   38.1910   31.6471 C   0  0  0  0  0  0  0  0  0  0  0  0
   12.9348   37.6808   32.0292 C   0  0  0  0  0  0  0  0  0  0  0  0
    9.6126   38.0874   30.6547 O   0  0  0  0  0  0  0  0  0  0  0  0
   11.5767   37.0133   31.7026 C   0  0  0  0  0  0  0  0  0  0  0  0
   13.4901   37.2165   33.3236 N   0  0  0  0  0  0  0  0  0  0  0  0
   11.6321   36.3231   30.4741 O   0  0  0  0  0  0  0  0  0  0  0  0
   14.4763   36.3266   33.5727 C   0  0  0  0  0  0  0  0  0  0  0  0
   13.1179   37.6307   34.5689 C   0  0  0  0  0  0  0  0  0  0  0  0
   15.2065   35.6135   32.6738 N   0  0  0  0  0  0  0  0  0  0  0  0
   14.6736   36.2272   34.9182 C   0  0  0  0  0  0  0  0  0  0  0  0
   13.8228   37.0453   35.5783 N   0  0  0  0  0  0  0  0  0  0  0  0
   16.1640   34.7592   33.1547 C   0  0  0  0  0  0  0  0  0  0  0  0
   15.6519   35.3491   35.4130 C   0  0  0  0  0  0  0  0  0  0  0  0
   16.3795   34.6309   34.5042 N   0  0  0  0  0  0  0  0  0  0  0  0
   15.9004   35.1933   36.8089 N   0  0  0  0  0  0  0  0  0  0  0  0
    9.8273   44.9835   32.1452 H   0  0  0  0  0  0  0  0  0  0  0  0
   10.9047   46.9180   32.9634 H   0  0  0  0  0  0  0  0  0  0  0  0
   11.1194   46.2627   34.5034 H   0  0  0  0  0  0  0  0  0  0  0  0
    8.7582   45.7491   34.9474 H   0  0  0  0  0  0  0  0  0  0  0  0
    7.8279   44.9006   33.6889 H   0  0  0  0  0  0  0  0  0  0  0  0
    7.5073   49.1982   35.6355 H   0  0  0  0  0  0  0  0  0  0  0  0
    7.4409   47.4267   35.8498 H   0  0  0  0  0  0  0  0  0  0  0  0
    9.1965   46.8818   37.4040 H   0  0  0  0  0  0  0  0  0  0  0  0
   10.0121   49.7873   34.3183 H   0  0  0  0  0  0  0  0  0  0  0  0
   11.5495   47.0136   38.1352 H   0  0  0  0  0  0  0  0  0  0  0  0
   12.3631   49.9028   35.0643 H   0  0  0  0  0  0  0  0  0  0  0  0
   13.1381   48.5158   36.9671 H   0  0  0  0  0  0  0  0  0  0  0  0
   11.3842   41.5506   31.4728 H   0  0  0  0  0  0  0  0  0  0  0  0
    9.8258   40.7203   31.7580 H   0  0  0  0  0  0  0  0  0  0  0  0
   11.7273   39.5286   30.3502 H   0  0  0  0  0  0  0  0  0  0  0  0
   10.1122   38.2732   32.6390 H   0  0  0  0  0  0  0  0  0  0  0  0
   13.6685   37.4592   31.2224 H   0  0  0  0  0  0  0  0  0  0  0  0
   10.0514   38.1110   29.7648 H   0  0  0  0  0  0  0  0  0  0  0  0
   11.2801   36.3129   32.5195 H   0  0  0  0  0  0  0  0  0  0  0  0
   10.8624   35.6960   30.4646 H   0  0  0  0  0  0  0  0  0  0  0  0
   12.3356   38.3581   34.7445 H   0  0  0  0  0  0  0  0  0  0  0  0
   16.7575   34.1787   32.4619 H   0  0  0  0  0  0  0  0  0  0  0  0
   16.6364   34.5315   37.1415 H   0  0  0  0  0  0  0  0  0  0  0  0
   15.3531   35.7355   37.5137 H   0  0  0  0  0  0  0  0  0  0  0  0
  1  2  2  0
  1  3  1  0
  3  4  1  0
  4  5  1  0
  6  1  1  0
  7  6  1  0
  6  8  1  0
  8  9  1  0
  9 10  1  0
  9 11  2  0
 10 12  1  0
 12 13  1  0
 13 14  2  0
 15 13  1  0
 14 16  1  0
 17 15  2  0
 16 18  2  0
 18 17  1  0
  4 19  2  0
  4 20  1  0
 21 20  1  0
 21 22  1  0
 22 23  1  0
 22 24  1  0
 23 25  1  0
 24 26  1  0
 24 27  1  0
 27 25  1  0
 25 28  1  0
 27 29  1  0
 30 28  1  0
 31 28  1  0
 32 30  2  0
 30 33  1  0
 34 31  2  0
 35 32  1  0
 33 36  2  0
 33 34  1  0
 37 35  2  0
 37 36  1  0
 36 38  1  0
  6 39  1  6
  7 40  1  0
  7 41  1  0
  8 42  1  0
  8 43  1  0
 12 44  1  0
 12 45  1  0
 14 46  1  0
 15 47  1  0
 16 48  1  0
 17 49  1  0
 18 50  1  0
 21 51  1  0
 21 52  1  0
 22 53  1  0
 24 54  1  0
 25 55  1  0
 26 56  1  0
 27 57  1  0
 29 58  1  0
 31 59  1  0
 35 60  1  0
 38 61  1  0
 38 62  1  0
M  CHG  1   5  -1
M  END
>  <EmbedRMS>  (308) 
0.08785323676423085

$$$$

     RDKit          3D

 62 65  0  0  0  0  0  0  0  0999 V2000
   10.2811   43.7755   33.8096 C   0  0  0  0  0  0  0  0  0  0  0  0
   11.4042   43.5915   34.3653 O   0  0  0  0  0  0  0  0  0  0  0  0
    9.3695   42.7294   33.6962 O   0  0  0  0  0  0  0  0  0  0  0  0
    9.8865   41.2338   34.2837 P   0  0  0  0  0  5  0  0  0  0  0  0
   10.3659   41.4705   35.8743 O   0  0  0  0  0  1  0  0  0  0  0  0
    9.9458   45.1216   33.2607 C   0  0  2  0  0  0  0  0  0  0  0  0
   11.0802   46.0238   33.4671 N   0  0  0  0  0  0  0  0  0  0  0  0
    8.6940   45.7025   33.9557 C   0  0  0  0  0  0  0  0  0  0  0  0
    7.4213   45.0361   33.4976 C   0  0  0  0  0  0  0  0  0  0  0  0
    6.7853   45.3629   32.2906 O   0  0  0  0  0  0  0  0  0  0  0  0
    6.9217   44.1266   34.2109 O   0  0  0  0  0  0  0  0  0  0  0  0
    7.1130   46.4818   31.4658 C   0  0  0  0  0  0  0  0  0  0  0  0
    6.6261   47.7649   32.0845 C   0  0  0  0  0  0  0  0  0  0  0  0
    5.2907   47.8831   32.5048 C   0  0  0  0  0  0  0  0  0  0  0  0
    7.4873   48.8683   32.2109 C   0  0  0  0  0  0  0  0  0  0  0  0
    4.8314   49.0794   33.0645 C   0  0  0  0  0  0  0  0  0  0  0  0
    7.0241   50.0625   32.7718 C   0  0  0  0  0  0  0  0  0  0  0  0
    5.6979   50.1675   33.1999 C   0  0  0  0  0  0  0  0  0  0  0  0
    8.8086   40.1913   34.2081 O   0  0  0  0  0  0  0  0  0  0  0  0
   11.2380   40.7896   33.3686 O   0  0  0  0  0  0  0  0  0  0  0  0
   10.9163   40.6896   31.9957 C   0  0  0  0  0  0  0  0  0  0  0  0
   11.5273   39.3896   31.4370 C   0  0  0  0  0  0  0  0  0  0  0  0
   12.7510   39.0914   32.0835 O   0  0  0  0  0  0  0  0  0  0  0  0
   10.6123   38.1916   31.6451 C   0  0  0  0  0  0  0  0  0  0  0  0
   12.9429   37.6850   32.0294 C   0  0  0  0  0  0  0  0  0  0  0  0
    9.6070   38.0858   30.6603 O   0  0  0  0  0  0  0  0  0  0  0  0
   11.5845   37.0185   31.6879 C   0  0  0  0  0  0  0  0  0  0  0  0
   13.4899   37.2162   33.3249 N   0  0  0  0  0  0  0  0  0  0  0  0
   11.6201   36.3061   30.4692 O   0  0  0  0  0  0  0  0  0  0  0  0
   14.4759   36.3263   33.5738 C   0  0  0  0  0  0  0  0  0  0  0  0
   13.1175   37.6307   34.5698 C   0  0  0  0  0  0  0  0  0  0  0  0
   15.2065   35.6138   32.6746 N   0  0  0  0  0  0  0  0  0  0  0  0
   14.6731   36.2267   34.9191 C   0  0  0  0  0  0  0  0  0  0  0  0
   13.8224   37.0450   35.5792 N   0  0  0  0  0  0  0  0  0  0  0  0
   16.1640   34.7595   33.1551 C   0  0  0  0  0  0  0  0  0  0  0  0
   15.6518   35.3489   35.4136 C   0  0  0  0  0  0  0  0  0  0  0  0
   16.3795   34.6310   34.5046 N   0  0  0  0  0  0  0  0  0  0  0  0
   15.9006   35.1931   36.8094 N   0  0  0  0  0  0  0  0  0  0  0  0
    9.7609   45.0163   32.1687 H   0  0  0  0  0  0  0  0  0  0  0  0
   10.8415   46.9564   33.0569 H   0  0  0  0  0  0  0  0  0  0  0  0
   11.8878   45.6754   32.8994 H   0  0  0  0  0  0  0  0  0  0  0  0
    8.7948   45.5970   35.0589 H   0  0  0  0  0  0  0  0  0  0  0  0
    8.6187   46.7905   33.7599 H   0  0  0  0  0  0  0  0  0  0  0  0
    8.2045   46.5094   31.2661 H   0  0  0  0  0  0  0  0  0  0  0  0
    6.6064   46.3551   30.4862 H   0  0  0  0  0  0  0  0  0  0  0  0
    4.6077   47.0492   32.4003 H   0  0  0  0  0  0  0  0  0  0  0  0
    8.5169   48.8033   31.8813 H   0  0  0  0  0  0  0  0  0  0  0  0
    3.8031   49.1636   33.3914 H   0  0  0  0  0  0  0  0  0  0  0  0
    7.6930   50.9073   32.8729 H   0  0  0  0  0  0  0  0  0  0  0  0
    5.3408   51.0929   33.6331 H   0  0  0  0  0  0  0  0  0  0  0  0
    9.8262   40.7192   31.7583 H   0  0  0  0  0  0  0  0  0  0  0  0
   11.3835   41.5524   31.4745 H   0  0  0  0  0  0  0  0  0  0  0  0
   11.7320   39.5335   30.3516 H   0  0  0  0  0  0  0  0  0  0  0  0
   10.1217   38.2684   32.6412 H   0  0  0  0  0  0  0  0  0  0  0  0
   13.6882   37.4703   31.2318 H   0  0  0  0  0  0  0  0  0  0  0  0
   10.0256   38.1750   29.7656 H   0  0  0  0  0  0  0  0  0  0  0  0
   11.2795   36.3123   32.4915 H   0  0  0  0  0  0  0  0  0  0  0  0
   11.9870   36.9098   29.7714 H   0  0  0  0  0  0  0  0  0  0  0  0
   12.3365   38.3595   34.7452 H   0  0  0  0  0  0  0  0  0  0  0  0
   16.7577   34.1794   32.4622 H   0  0  0  0  0  0  0  0  0  0  0  0
   15.3532   35.7351   37.5143 H   0  0  0  0  0  0  0  0  0  0  0  0
   16.6368   34.5316   37.1418 H   0  0  0  0  0  0  0  0  0  0  0  0
  1  2  2  0
  1  3  1  0
  3  4  1  0
  4  5  1  0
  6  1  1  0
  7  6  1  0
  6  8  1  0
  8  9  1  0
  9 10  1  0
  9 11  2  0
 10 12  1  0
 12 13  1  0
 13 14  2  0
 15 13  1  0
 14 16  1  0
 17 15  2  0
 16 18  2  0
 18 17  1  0
  4 19  2  0
  4 20  1  0
 21 20  1  0
 21 22  1  0
 22 23  1  0
 22 24  1  0
 23 25  1  0
 24 26  1  0
 24 27  1  0
 27 25  1  0
 25 28  1  0
 27 29  1  0
 30 28  1  0
 31 28  1  0
 32 30  2  0
 30 33  1  0
 34 31  2  0
 35 32  1  0
 33 36  2  0
 33 34  1  0
 37 35  2  0
 37 36  1  0
 36 38  1  0
  6 39  1  6
  7 40  1  0
  7 41  1  0
  8 42  1  0
  8 43  1  0
 12 44  1  0
 12 45  1  0
 14 46  1  0
 15 47  1  0
 16 48  1  0
 17 49  1  0
 18 50  1  0
 21 51  1  0
 21 52  1  0
 22 53  1  0
 24 54  1  0
 25 55  1  0
 26 56  1  0
 27 57  1  0
 29 58  1  0
 31 59  1  0
 35 60  1  0
 38 61  1  0
 38 62  1  0
M  CHG  1   5  -1
M  END
>  <EmbedRMS>  (309) 
0.08735772538840465

$$$$

     RDKit          3D

 62 65  0  0  0  0  0  0  0  0999 V2000
   10.2855   43.7718   33.8043 C   0  0  0  0  0  0  0  0  0  0  0  0
   11.4104   43.5871   34.3557 O   0  0  0  0  0  0  0  0  0  0  0  0
    9.3664   42.7313   33.7003 O   0  0  0  0  0  0  0  0  0  0  0  0
    9.8848   41.2347   34.2850 P   0  0  0  0  0  5  0  0  0  0  0  0
   10.3657   41.4703   35.8750 O   0  0  0  0  0  1  0  0  0  0  0  0
    9.9552   45.1131   33.2488 C   0  0  2  0  0  0  0  0  0  0  0  0
   11.0693   46.0342   33.4833 N   0  0  0  0  0  0  0  0  0  0  0  0
    8.6224   45.6650   33.8097 C   0  0  0  0  0  0  0  0  0  0  0  0
    8.5567   45.6267   35.3086 C   0  0  0  0  0  0  0  0  0  0  0  0
    9.1710   46.6371   36.0561 O   0  0  0  0  0  0  0  0  0  0  0  0
    7.9850   44.6600   35.8829 O   0  0  0  0  0  0  0  0  0  0  0  0
    9.3796   46.5450   37.4634 C   0  0  0  0  0  0  0  0  0  0  0  0
   10.4133   45.4931   37.7644 C   0  0  0  0  0  0  0  0  0  0  0  0
   10.0411   44.2672   38.3410 C   0  0  0  0  0  0  0  0  0  0  0  0
   11.7552   45.7086   37.4111 C   0  0  0  0  0  0  0  0  0  0  0  0
   11.0013   43.2764   38.5685 C   0  0  0  0  0  0  0  0  0  0  0  0
   12.7116   44.7138   37.6368 C   0  0  0  0  0  0  0  0  0  0  0  0
   12.3350   43.4986   38.2151 C   0  0  0  0  0  0  0  0  0  0  0  0
    8.8076   40.1915   34.2093 O   0  0  0  0  0  0  0  0  0  0  0  0
   11.2366   40.7907   33.3693 O   0  0  0  0  0  0  0  0  0  0  0  0
   10.9153   40.6899   31.9963 C   0  0  0  0  0  0  0  0  0  0  0  0
   11.5269   39.3899   31.4376 C   0  0  0  0  0  0  0  0  0  0  0  0
   12.7507   39.0917   32.0840 O   0  0  0  0  0  0  0  0  0  0  0  0
   10.6121   38.1916   31.6453 C   0  0  0  0  0  0  0  0  0  0  0  0
   12.9429   37.6854   32.0296 C   0  0  0  0  0  0  0  0  0  0  0  0
    9.6070   38.0858   30.6603 O   0  0  0  0  0  0  0  0  0  0  0  0
   11.5845   37.0187   31.6880 C   0  0  0  0  0  0  0  0  0  0  0  0
   13.4898   37.2164   33.3250 N   0  0  0  0  0  0  0  0  0  0  0  0
   11.6202   36.3063   30.4693 O   0  0  0  0  0  0  0  0  0  0  0  0
   14.4758   36.3264   33.5739 C   0  0  0  0  0  0  0  0  0  0  0  0
   13.1176   37.6309   34.5700 C   0  0  0  0  0  0  0  0  0  0  0  0
   15.2065   35.6139   32.6746 N   0  0  0  0  0  0  0  0  0  0  0  0
   14.6731   36.2268   34.9191 C   0  0  0  0  0  0  0  0  0  0  0  0
   13.8225   37.0451   35.5793 N   0  0  0  0  0  0  0  0  0  0  0  0
   16.1640   34.7596   33.1551 C   0  0  0  0  0  0  0  0  0  0  0  0
   15.6517   35.3489   35.4136 C   0  0  0  0  0  0  0  0  0  0  0  0
   16.3795   34.6310   34.5046 N   0  0  0  0  0  0  0  0  0  0  0  0
   15.9006   35.1931   36.8094 N   0  0  0  0  0  0  0  0  0  0  0  0
    9.8366   44.9926   32.1496 H   0  0  0  0  0  0  0  0  0  0  0  0
   10.8619   46.9414   33.0057 H   0  0  0  0  0  0  0  0  0  0  0  0
   11.1631   46.2338   34.5047 H   0  0  0  0  0  0  0  0  0  0  0  0
    8.4758   46.7115   33.4665 H   0  0  0  0  0  0  0  0  0  0  0  0
    7.7800   45.0690   33.3946 H   0  0  0  0  0  0  0  0  0  0  0  0
    9.7418   47.5268   37.8348 H   0  0  0  0  0  0  0  0  0  0  0  0
    8.4168   46.3313   37.9774 H   0  0  0  0  0  0  0  0  0  0  0  0
    9.0092   44.0751   38.6073 H   0  0  0  0  0  0  0  0  0  0  0  0
   12.0573   46.6427   36.9539 H   0  0  0  0  0  0  0  0  0  0  0  0
   10.7099   42.3329   39.0115 H   0  0  0  0  0  0  0  0  0  0  0  0
   13.7439   44.8836   37.3595 H   0  0  0  0  0  0  0  0  0  0  0  0
   13.0757   42.7285   38.3867 H   0  0  0  0  0  0  0  0  0  0  0  0
   11.3821   41.5528   31.4749 H   0  0  0  0  0  0  0  0  0  0  0  0
    9.8251   40.7190   31.7592 H   0  0  0  0  0  0  0  0  0  0  0  0
   11.7317   39.5341   30.3522 H   0  0  0  0  0  0  0  0  0  0  0  0
   10.1214   38.2682   32.6413 H   0  0  0  0  0  0  0  0  0  0  0  0
   13.6882   37.4710   31.2320 H   0  0  0  0  0  0  0  0  0  0  0  0
   10.0257   38.1752   29.7656 H   0  0  0  0  0  0  0  0  0  0  0  0
   11.2796   36.3124   32.4916 H   0  0  0  0  0  0  0  0  0  0  0  0
   11.9872   36.9100   29.7715 H   0  0  0  0  0  0  0  0  0  0  0  0
   12.3366   38.3598   34.7454 H   0  0  0  0  0  0  0  0  0  0  0  0
   16.7576   34.1795   32.4622 H   0  0  0  0  0  0  0  0  0  0  0  0
   16.6368   34.5316   37.1418 H   0  0  0  0  0  0  0  0  0  0  0  0
   15.3532   35.7352   37.5144 H   0  0  0  0  0  0  0  0  0  0  0  0
  1  2  2  0
  1  3  1  0
  3  4  1  0
  4  5  1  0
  6  1  1  0
  7  6  1  0
  6  8  1  0
  8  9  1  0
  9 10  1  0
  9 11  2  0
 10 12  1  0
 12 13  1  0
 13 14  2  0
 15 13  1  0
 14 16  1  0
 17 15  2  0
 16 18  2  0
 18 17  1  0
  4 19  2  0
  4 20  1  0
 21 20  1  0
 21 22  1  0
 22 23  1  0
 22 24  1  0
 23 25  1  0
 24 26  1  0
 24 27  1  0
 27 25  1  0
 25 28  1  0
 27 29  1  0
 30 28  1  0
 31 28  1  0
 32 30  2  0
 30 33  1  0
 34 31  2  0
 35 32  1  0
 33 36  2  0
 33 34  1  0
 37 35  2  0
 37 36  1  0
 36 38  1  0
  6 39  1  6
  7 40  1  0
  7 41  1  0
  8 42  1  0
  8 43  1  0
 12 44  1  0
 12 45  1  0
 14 46  1  0
 15 47  1  0
 16 48  1  0
 17 49  1  0
 18 50  1  0
 21 51  1  0
 21 52  1  0
 22 53  1  0
 24 54  1  0
 25 55  1  0
 26 56  1  0
 27 57  1  0
 29 58  1  0
 31 59  1  0
 35 60  1  0
 38 61  1  0
 38 62  1  0
M  CHG  1   5  -1
M  END
>  <EmbedRMS>  (310) 
0.08680264873012795

$$$$

     RDKit          3D

 62 65  0  0  0  0  0  0  0  0999 V2000
   10.2843   43.7743   33.8069 C   0  0  0  0  0  0  0  0  0  0  0  0
   11.4068   43.5903   34.3635 O   0  0  0  0  0  0  0  0  0  0  0  0
    9.3678   42.7312   33.6991 O   0  0  0  0  0  0  0  0  0  0  0  0
    9.8856   41.2344   34.2840 P   0  0  0  0  0  5  0  0  0  0  0  0
   10.3659   41.4699   35.8746 O   0  0  0  0  0  1  0  0  0  0  0  0
    9.9494   45.1163   33.2544 C   0  0  2  0  0  0  0  0  0  0  0  0
   11.0753   46.0280   33.4735 N   0  0  0  0  0  0  0  0  0  0  0  0
    8.6781   45.6538   33.9406 C   0  0  0  0  0  0  0  0  0  0  0  0
    8.1763   46.8985   33.2760 C   0  0  0  0  0  0  0  0  0  0  0  0
    7.5648   46.8075   32.0206 O   0  0  0  0  0  0  0  0  0  0  0  0
    8.3304   48.0164   33.8395 O   0  0  0  0  0  0  0  0  0  0  0  0
    7.0390   47.9342   31.3227 C   0  0  0  0  0  0  0  0  0  0  0  0
    5.7803   48.4223   31.9863 C   0  0  0  0  0  0  0  0  0  0  0  0
    5.7542   49.6591   32.6523 C   0  0  0  0  0  0  0  0  0  0  0  0
    4.6239   47.6257   31.9667 C   0  0  0  0  0  0  0  0  0  0  0  0
    4.5838   50.0945   33.2820 C   0  0  0  0  0  0  0  0  0  0  0  0
    3.4556   48.0648   32.5974 C   0  0  0  0  0  0  0  0  0  0  0  0
    3.4353   49.2984   33.2540 C   0  0  0  0  0  0  0  0  0  0  0  0
    8.8081   40.1914   34.2083 O   0  0  0  0  0  0  0  0  0  0  0  0
   11.2373   40.7905   33.3686 O   0  0  0  0  0  0  0  0  0  0  0  0
   10.9157   40.6897   31.9957 C   0  0  0  0  0  0  0  0  0  0  0  0
   11.5271   39.3897   31.4372 C   0  0  0  0  0  0  0  0  0  0  0  0
   12.7508   39.0915   32.0838 O   0  0  0  0  0  0  0  0  0  0  0  0
   10.6122   38.1916   31.6451 C   0  0  0  0  0  0  0  0  0  0  0  0
   12.9429   37.6852   32.0295 C   0  0  0  0  0  0  0  0  0  0  0  0
    9.6070   38.0858   30.6603 O   0  0  0  0  0  0  0  0  0  0  0  0
   11.5845   37.0185   31.6879 C   0  0  0  0  0  0  0  0  0  0  0  0
   13.4899   37.2163   33.3250 N   0  0  0  0  0  0  0  0  0  0  0  0
   11.6201   36.3062   30.4693 O   0  0  0  0  0  0  0  0  0  0  0  0
   14.4759   36.3263   33.5738 C   0  0  0  0  0  0  0  0  0  0  0  0
   13.1175   37.6307   34.5699 C   0  0  0  0  0  0  0  0  0  0  0  0
   15.2065   35.6139   32.6746 N   0  0  0  0  0  0  0  0  0  0  0  0
   14.6731   36.2267   34.9191 C   0  0  0  0  0  0  0  0  0  0  0  0
   13.8224   37.0450   35.5792 N   0  0  0  0  0  0  0  0  0  0  0  0
   16.1640   34.7596   33.1551 C   0  0  0  0  0  0  0  0  0  0  0  0
   15.6518   35.3489   35.4136 C   0  0  0  0  0  0  0  0  0  0  0  0
   16.3795   34.6310   34.5046 N   0  0  0  0  0  0  0  0  0  0  0  0
   15.9006   35.1931   36.8094 N   0  0  0  0  0  0  0  0  0  0  0  0
    9.7649   45.0042   32.1616 H   0  0  0  0  0  0  0  0  0  0  0  0
   11.8943   45.6795   32.9225 H   0  0  0  0  0  0  0  0  0  0  0  0
   10.8436   46.9568   33.0533 H   0  0  0  0  0  0  0  0  0  0  0  0
    7.8671   44.8952   33.8874 H   0  0  0  0  0  0  0  0  0  0  0  0
    8.8835   45.8533   35.0159 H   0  0  0  0  0  0  0  0  0  0  0  0
    7.8082   48.7353   31.2621 H   0  0  0  0  0  0  0  0  0  0  0  0
    6.8013   47.6276   30.2822 H   0  0  0  0  0  0  0  0  0  0  0  0
    6.6377   50.2845   32.6867 H   0  0  0  0  0  0  0  0  0  0  0  0
    4.6293   46.6659   31.4649 H   0  0  0  0  0  0  0  0  0  0  0  0
    4.5677   51.0483   33.7932 H   0  0  0  0  0  0  0  0  0  0  0  0
    2.5665   47.4478   32.5786 H   0  0  0  0  0  0  0  0  0  0  0  0
    2.5305   49.6366   33.7424 H   0  0  0  0  0  0  0  0  0  0  0  0
    9.8256   40.7190   31.7585 H   0  0  0  0  0  0  0  0  0  0  0  0
   11.3827   41.5525   31.4742 H   0  0  0  0  0  0  0  0  0  0  0  0
   11.7320   39.5336   30.3518 H   0  0  0  0  0  0  0  0  0  0  0  0
   10.1215   38.2683   32.6412 H   0  0  0  0  0  0  0  0  0  0  0  0
   13.6882   37.4707   31.2319 H   0  0  0  0  0  0  0  0  0  0  0  0
   10.0256   38.1750   29.7656 H   0  0  0  0  0  0  0  0  0  0  0  0
   11.2795   36.3123   32.4915 H   0  0  0  0  0  0  0  0  0  0  0  0
   11.9872   36.9099   29.7714 H   0  0  0  0  0  0  0  0  0  0  0  0
   12.3365   38.3595   34.7453 H   0  0  0  0  0  0  0  0  0  0  0  0
   16.7577   34.1794   32.4622 H   0  0  0  0  0  0  0  0  0  0  0  0
   15.3532   35.7351   37.5143 H   0  0  0  0  0  0  0  0  0  0  0  0
   16.6368   34.5316   37.1418 H   0  0  0  0  0  0  0  0  0  0  0  0
  1  2  2  0
  1  3  1  0
  3  4  1  0
  4  5  1  0
  6  1  1  0
  7  6  1  0
  6  8  1  0
  8  9  1  0
  9 10  1  0
  9 11  2  0
 10 12  1  0
 12 13  1  0
 13 14  2  0
 15 13  1  0
 14 16  1  0
 17 15  2  0
 16 18  2  0
 18 17  1  0
  4 19  2  0
  4 20  1  0
 21 20  1  0
 21 22  1  0
 22 23  1  0
 22 24  1  0
 23 25  1  0
 24 26  1  0
 24 27  1  0
 27 25  1  0
 25 28  1  0
 27 29  1  0
 30 28  1  0
 31 28  1  0
 32 30  2  0
 30 33  1  0
 34 31  2  0
 35 32  1  0
 33 36  2  0
 33 34  1  0
 37 35  2  0
 37 36  1  0
 36 38  1  0
  6 39  1  6
  7 40  1  0
  7 41  1  0
  8 42  1  0
  8 43  1  0
 12 44  1  0
 12 45  1  0
 14 46  1  0
 15 47  1  0
 16 48  1  0
 17 49  1  0
 18 50  1  0
 21 51  1  0
 21 52  1  0
 22 53  1  0
 24 54  1  0
 25 55  1  0
 26 56  1  0
 27 57  1  0
 29 58  1  0
 31 59  1  0
 35 60  1  0
 38 61  1  0
 38 62  1  0
M  CHG  1   5  -1
M  END
>  <EmbedRMS>  (311) 
0.087063790038754

$$$$

     RDKit          3D

 62 65  0  0  0  0  0  0  0  0999 V2000
   10.2862   43.7709   33.8100 C   0  0  0  0  0  0  0  0  0  0  0  0
   11.4101   43.5816   34.3616 O   0  0  0  0  0  0  0  0  0  0  0  0
    9.3667   42.7309   33.7021 O   0  0  0  0  0  0  0  0  0  0  0  0
    9.8845   41.2330   34.2841 P   0  0  0  0  0  5  0  0  0  0  0  0
   10.3656   41.4676   35.8746 O   0  0  0  0  0  1  0  0  0  0  0  0
    9.9612   45.1119   33.2468 C   0  0  2  0  0  0  0  0  0  0  0  0
   11.0652   46.0483   33.4749 N   0  0  0  0  0  0  0  0  0  0  0  0
    8.6639   45.6567   33.8678 C   0  0  0  0  0  0  0  0  0  0  0  0
    8.2886   46.9671   33.2502 C   0  0  0  0  0  0  0  0  0  0  0  0
    7.7476   46.9863   31.9602 O   0  0  0  0  0  0  0  0  0  0  0  0
    8.5045   48.0409   33.8759 O   0  0  0  0  0  0  0  0  0  0  0  0
    7.5424   48.1862   31.2186 C   0  0  0  0  0  0  0  0  0  0  0  0
    8.8646   48.7732   30.8049 C   0  0  0  0  0  0  0  0  0  0  0  0
    9.2849   50.0174   31.3040 C   0  0  0  0  0  0  0  0  0  0  0  0
    9.7061   48.0592   29.9363 C   0  0  0  0  0  0  0  0  0  0  0  0
   10.5276   50.5405   30.9329 C   0  0  0  0  0  0  0  0  0  0  0  0
   10.9483   48.5854   29.5685 C   0  0  0  0  0  0  0  0  0  0  0  0
   11.3585   49.8254   30.0658 C   0  0  0  0  0  0  0  0  0  0  0  0
    8.8068   40.1904   34.2081 O   0  0  0  0  0  0  0  0  0  0  0  0
   11.2364   40.7897   33.3679 O   0  0  0  0  0  0  0  0  0  0  0  0
   10.9151   40.6881   31.9948 C   0  0  0  0  0  0  0  0  0  0  0  0
   11.5260   39.3871   31.4364 C   0  0  0  0  0  0  0  0  0  0  0  0
   12.7490   39.0893   32.0819 O   0  0  0  0  0  0  0  0  0  0  0  0
   10.6122   38.1893   31.6461 C   0  0  0  0  0  0  0  0  0  0  0  0
   12.9373   37.6828   32.0301 C   0  0  0  0  0  0  0  0  0  0  0  0
    9.6150   38.0838   30.6538 O   0  0  0  0  0  0  0  0  0  0  0  0
   11.5793   37.0136   31.7013 C   0  0  0  0  0  0  0  0  0  0  0  0
   13.4906   37.2170   33.3242 N   0  0  0  0  0  0  0  0  0  0  0  0
   11.6217   36.3252   30.4725 O   0  0  0  0  0  0  0  0  0  0  0  0
   14.4763   36.3266   33.5731 C   0  0  0  0  0  0  0  0  0  0  0  0
   13.1181   37.6308   34.5694 C   0  0  0  0  0  0  0  0  0  0  0  0
   15.2065   35.6137   32.6740 N   0  0  0  0  0  0  0  0  0  0  0  0
   14.6735   36.2270   34.9185 C   0  0  0  0  0  0  0  0  0  0  0  0
   13.8229   37.0451   35.5787 N   0  0  0  0  0  0  0  0  0  0  0  0
   16.1639   34.7593   33.1547 C   0  0  0  0  0  0  0  0  0  0  0  0
   15.6519   35.3489   35.4132 C   0  0  0  0  0  0  0  0  0  0  0  0
   16.3794   34.6308   34.5042 N   0  0  0  0  0  0  0  0  0  0  0  0
   15.9006   35.1931   36.8090 N   0  0  0  0  0  0  0  0  0  0  0  0
    9.8128   44.9942   32.1501 H   0  0  0  0  0  0  0  0  0  0  0  0
   11.9217   45.7041   32.9817 H   0  0  0  0  0  0  0  0  0  0  0  0
   11.2750   46.1181   34.4982 H   0  0  0  0  0  0  0  0  0  0  0  0
    8.7867   45.7774   34.9672 H   0  0  0  0  0  0  0  0  0  0  0  0
    7.8318   44.9402   33.6945 H   0  0  0  0  0  0  0  0  0  0  0  0
    6.9428   48.9048   31.8196 H   0  0  0  0  0  0  0  0  0  0  0  0
    6.9557   47.9452   30.3073 H   0  0  0  0  0  0  0  0  0  0  0  0
    8.6551   50.5798   31.9820 H   0  0  0  0  0  0  0  0  0  0  0  0
    9.4014   47.0943   29.5499 H   0  0  0  0  0  0  0  0  0  0  0  0
   10.8478   51.4994   31.3197 H   0  0  0  0  0  0  0  0  0  0  0  0
   11.5937   48.0308   28.8996 H   0  0  0  0  0  0  0  0  0  0  0  0
   12.3206   50.2311   29.7809 H   0  0  0  0  0  0  0  0  0  0  0  0
    9.8249   40.7180   31.7578 H   0  0  0  0  0  0  0  0  0  0  0  0
   11.3824   41.5504   31.4729 H   0  0  0  0  0  0  0  0  0  0  0  0
   11.7290   39.5287   30.3503 H   0  0  0  0  0  0  0  0  0  0  0  0
   10.1139   38.2718   32.6379 H   0  0  0  0  0  0  0  0  0  0  0  0
   13.6725   37.4637   31.2240 H   0  0  0  0  0  0  0  0  0  0  0  0
   10.0535   38.1085   29.7638 H   0  0  0  0  0  0  0  0  0  0  0  0
   11.2646   36.3134   32.5107 H   0  0  0  0  0  0  0  0  0  0  0  0
   12.1550   35.5032   30.6315 H   0  0  0  0  0  0  0  0  0  0  0  0
   12.3362   38.3586   34.7450 H   0  0  0  0  0  0  0  0  0  0  0  0
   16.7573   34.1788   32.4619 H   0  0  0  0  0  0  0  0  0  0  0  0
   15.3533   35.7353   37.5139 H   0  0  0  0  0  0  0  0  0  0  0  0
   16.6366   34.5314   37.1415 H   0  0  0  0  0  0  0  0  0  0  0  0
  1  2  2  0
  1  3  1  0
  3  4  1  0
  4  5  1  0
  6  1  1  0
  7  6  1  0
  6  8  1  0
  8  9  1  0
  9 10  1  0
  9 11  2  0
 10 12  1  0
 12 13  1  0
 13 14  2  0
 15 13  1  0
 14 16  1  0
 17 15  2  0
 16 18  2  0
 18 17  1  0
  4 19  2  0
  4 20  1  0
 21 20  1  0
 21 22  1  0
 22 23  1  0
 22 24  1  0
 23 25  1  0
 24 26  1  0
 24 27  1  0
 27 25  1  0
 25 28  1  0
 27 29  1  0
 30 28  1  0
 31 28  1  0
 32 30  2  0
 30 33  1  0
 34 31  2  0
 35 32  1  0
 33 36  2  0
 33 34  1  0
 37 35  2  0
 37 36  1  0
 36 38  1  0
  6 39  1  6
  7 40  1  0
  7 41  1  0
  8 42  1  0
  8 43  1  0
 12 44  1  0
 12 45  1  0
 14 46  1  0
 15 47  1  0
 16 48  1  0
 17 49  1  0
 18 50  1  0
 21 51  1  0
 21 52  1  0
 22 53  1  0
 24 54  1  0
 25 55  1  0
 26 56  1  0
 27 57  1  0
 29 58  1  0
 31 59  1  0
 35 60  1  0
 38 61  1  0
 38 62  1  0
M  CHG  1   5  -1
M  END
>  <EmbedRMS>  (312) 
0.08842739903414923

$$$$

     RDKit          3D

 62 65  0  0  0  0  0  0  0  0999 V2000
   10.2811   43.7750   33.8076 C   0  0  0  0  0  0  0  0  0  0  0  0
   11.4039   43.5912   34.3641 O   0  0  0  0  0  0  0  0  0  0  0  0
    9.3696   42.7286   33.6947 O   0  0  0  0  0  0  0  0  0  0  0  0
    9.8868   41.2336   34.2836 P   0  0  0  0  0  5  0  0  0  0  0  0
   10.3647   41.4711   35.8745 O   0  0  0  0  0  1  0  0  0  0  0  0
    9.9456   45.1231   33.2612 C   0  0  2  0  0  0  0  0  0  0  0  0
   11.0809   46.0237   33.4691 N   0  0  0  0  0  0  0  0  0  0  0  0
    8.6958   45.7022   33.9583 C   0  0  0  0  0  0  0  0  0  0  0  0
    7.4375   45.0173   33.5190 C   0  0  0  0  0  0  0  0  0  0  0  0
    6.8945   44.0002   34.3086 O   0  0  0  0  0  0  0  0  0  0  0  0
    6.8952   45.3439   32.4279 O   0  0  0  0  0  0  0  0  0  0  0  0
    5.7066   43.3018   33.9530 C   0  0  0  0  0  0  0  0  0  0  0  0
    5.4588   42.2087   34.9506 C   0  0  0  0  0  0  0  0  0  0  0  0
    5.6954   40.8655   34.6134 C   0  0  0  0  0  0  0  0  0  0  0  0
    5.0323   42.5280   36.2498 C   0  0  0  0  0  0  0  0  0  0  0  0
    5.4969   39.8566   35.5611 C   0  0  0  0  0  0  0  0  0  0  0  0
    4.8335   41.5160   37.1943 C   0  0  0  0  0  0  0  0  0  0  0  0
    5.0653   40.1813   36.8501 C   0  0  0  0  0  0  0  0  0  0  0  0
    8.8116   40.1889   34.2075 O   0  0  0  0  0  0  0  0  0  0  0  0
   11.2395   40.7903   33.3696 O   0  0  0  0  0  0  0  0  0  0  0  0
   10.9195   40.6904   31.9961 C   0  0  0  0  0  0  0  0  0  0  0  0
   11.5176   39.3822   31.4411 C   0  0  0  0  0  0  0  0  0  0  0  0
   12.7496   39.0890   32.0753 O   0  0  0  0  0  0  0  0  0  0  0  0
   10.6035   38.1900   31.6661 C   0  0  0  0  0  0  0  0  0  0  0  0
   12.9400   37.6832   32.0276 C   0  0  0  0  0  0  0  0  0  0  0  0
    9.6374   38.0787   30.6478 O   0  0  0  0  0  0  0  0  0  0  0  0
   11.5802   37.0203   31.6937 C   0  0  0  0  0  0  0  0  0  0  0  0
   13.4901   37.2176   33.3237 N   0  0  0  0  0  0  0  0  0  0  0  0
   11.6115   36.3193   30.4680 O   0  0  0  0  0  0  0  0  0  0  0  0
   14.4758   36.3271   33.5731 C   0  0  0  0  0  0  0  0  0  0  0  0
   13.1175   37.6317   34.5688 C   0  0  0  0  0  0  0  0  0  0  0  0
   15.2064   35.6141   32.6742 N   0  0  0  0  0  0  0  0  0  0  0  0
   14.6729   36.2274   34.9184 C   0  0  0  0  0  0  0  0  0  0  0  0
   13.8221   37.0457   35.5783 N   0  0  0  0  0  0  0  0  0  0  0  0
   16.1637   34.7597   33.1549 C   0  0  0  0  0  0  0  0  0  0  0  0
   15.6514   35.3493   35.4133 C   0  0  0  0  0  0  0  0  0  0  0  0
   16.3791   34.6312   34.5044 N   0  0  0  0  0  0  0  0  0  0  0  0
   15.9001   35.1935   36.8091 N   0  0  0  0  0  0  0  0  0  0  0  0
    9.7530   45.0285   32.1680 H   0  0  0  0  0  0  0  0  0  0  0  0
   11.8865   45.6779   32.8970 H   0  0  0  0  0  0  0  0  0  0  0  0
   10.8422   46.9593   33.0664 H   0  0  0  0  0  0  0  0  0  0  0  0
    8.8003   45.6209   35.0627 H   0  0  0  0  0  0  0  0  0  0  0  0
    8.5969   46.7831   33.7172 H   0  0  0  0  0  0  0  0  0  0  0  0
    4.8466   44.0062   33.9499 H   0  0  0  0  0  0  0  0  0  0  0  0
    5.8124   42.8802   32.9290 H   0  0  0  0  0  0  0  0  0  0  0  0
    6.0362   40.5990   33.6206 H   0  0  0  0  0  0  0  0  0  0  0  0
    4.8578   43.5595   36.5305 H   0  0  0  0  0  0  0  0  0  0  0  0
    5.6807   38.8233   35.2968 H   0  0  0  0  0  0  0  0  0  0  0  0
    4.5033   41.7668   38.1940 H   0  0  0  0  0  0  0  0  0  0  0  0
    4.9131   39.3993   37.5827 H   0  0  0  0  0  0  0  0  0  0  0  0
   11.4004   41.5452   31.4744 H   0  0  0  0  0  0  0  0  0  0  0  0
    9.8315   40.7397   31.7561 H   0  0  0  0  0  0  0  0  0  0  0  0
   11.6989   39.5089   30.3488 H   0  0  0  0  0  0  0  0  0  0  0  0
   10.1132   38.2591   32.6667 H   0  0  0  0  0  0  0  0  0  0  0  0
   13.6799   37.4623   31.2265 H   0  0  0  0  0  0  0  0  0  0  0  0
    8.8945   38.6902   30.8904 H   0  0  0  0  0  0  0  0  0  0  0  0
   11.2829   36.3060   32.4930 H   0  0  0  0  0  0  0  0  0  0  0  0
   11.8855   36.9590   29.7593 H   0  0  0  0  0  0  0  0  0  0  0  0
   12.3359   38.3599   34.7441 H   0  0  0  0  0  0  0  0  0  0  0  0
   16.7572   34.1793   32.4621 H   0  0  0  0  0  0  0  0  0  0  0  0
   15.3528   35.7357   37.5140 H   0  0  0  0  0  0  0  0  0  0  0  0
   16.6362   34.5318   37.1416 H   0  0  0  0  0  0  0  0  0  0  0  0
  1  2  2  0
  1  3  1  0
  3  4  1  0
  4  5  1  0
  6  1  1  0
  7  6  1  0
  6  8  1  0
  8  9  1  0
  9 10  1  0
  9 11  2  0
 10 12  1  0
 12 13  1  0
 13 14  2  0
 15 13  1  0
 14 16  1  0
 17 15  2  0
 16 18  2  0
 18 17  1  0
  4 19  2  0
  4 20  1  0
 21 20  1  0
 21 22  1  0
 22 23  1  0
 22 24  1  0
 23 25  1  0
 24 26  1  0
 24 27  1  0
 27 25  1  0
 25 28  1  0
 27 29  1  0
 30 28  1  0
 31 28  1  0
 32 30  2  0
 30 33  1  0
 34 31  2  0
 35 32  1  0
 33 36  2  0
 33 34  1  0
 37 35  2  0
 37 36  1  0
 36 38  1  0
  6 39  1  6
  7 40  1  0
  7 41  1  0
  8 42  1  0
  8 43  1  0
 12 44  1  0
 12 45  1  0
 14 46  1  0
 15 47  1  0
 16 48  1  0
 17 49  1  0
 18 50  1  0
 21 51  1  0
 21 52  1  0
 22 53  1  0
 24 54  1  0
 25 55  1  0
 26 56  1  0
 27 57  1  0
 29 58  1  0
 31 59  1  0
 35 60  1  0
 38 61  1  0
 38 62  1  0
M  CHG  1   5  -1
M  END
>  <EmbedRMS>  (313) 
0.0885474377445816

$$$$

     RDKit          3D

 62 65  0  0  0  0  0  0  0  0999 V2000
   10.2867   43.7708   33.8016 C   0  0  0  0  0  0  0  0  0  0  0  0
   11.4091   43.5869   34.3580 O   0  0  0  0  0  0  0  0  0  0  0  0
    9.3675   42.7304   33.6981 O   0  0  0  0  0  0  0  0  0  0  0  0
    9.8858   41.2341   34.2838 P   0  0  0  0  0  5  0  0  0  0  0  0
   10.3654   41.4706   35.8743 O   0  0  0  0  0  1  0  0  0  0  0  0
    9.9516   45.1162   33.2556 C   0  0  2  0  0  0  0  0  0  0  0  0
   11.0719   46.0322   33.4788 N   0  0  0  0  0  0  0  0  0  0  0  0
    8.6615   45.6673   33.8999 C   0  0  0  0  0  0  0  0  0  0  0  0
    8.7701   45.7517   35.3933 C   0  0  0  0  0  0  0  0  0  0  0  0
    9.5769   46.7378   35.9705 O   0  0  0  0  0  0  0  0  0  0  0  0
    8.1794   44.9005   36.1128 O   0  0  0  0  0  0  0  0  0  0  0  0
    9.9958   46.6984   37.3320 C   0  0  0  0  0  0  0  0  0  0  0  0
   10.9853   45.5824   37.5309 C   0  0  0  0  0  0  0  0  0  0  0  0
   12.2617   45.6677   36.9515 C   0  0  0  0  0  0  0  0  0  0  0  0
   10.6251   44.4222   38.2366 C   0  0  0  0  0  0  0  0  0  0  0  0
   13.1684   44.6118   37.0860 C   0  0  0  0  0  0  0  0  0  0  0  0
   11.5352   43.3689   38.3697 C   0  0  0  0  0  0  0  0  0  0  0  0
   12.8054   43.4631   37.7944 C   0  0  0  0  0  0  0  0  0  0  0  0
    8.8084   40.1911   34.2082 O   0  0  0  0  0  0  0  0  0  0  0  0
   11.2386   40.7897   33.3691 O   0  0  0  0  0  0  0  0  0  0  0  0
   10.9198   40.6895   31.9952 C   0  0  0  0  0  0  0  0  0  0  0  0
   11.5172   39.3802   31.4398 C   0  0  0  0  0  0  0  0  0  0  0  0
   12.7480   39.0861   32.0733 O   0  0  0  0  0  0  0  0  0  0  0  0
   10.6032   38.1892   31.6667 C   0  0  0  0  0  0  0  0  0  0  0  0
   12.9336   37.6796   32.0280 C   0  0  0  0  0  0  0  0  0  0  0  0
    9.6397   38.0778   30.6457 O   0  0  0  0  0  0  0  0  0  0  0  0
   11.5739   37.0154   31.7058 C   0  0  0  0  0  0  0  0  0  0  0  0
   13.4903   37.2178   33.3231 N   0  0  0  0  0  0  0  0  0  0  0  0
   11.6211   36.3377   30.4695 O   0  0  0  0  0  0  0  0  0  0  0  0
   14.4761   36.3273   33.5725 C   0  0  0  0  0  0  0  0  0  0  0  0
   13.1179   37.6318   34.5684 C   0  0  0  0  0  0  0  0  0  0  0  0
   15.2063   35.6139   32.6738 N   0  0  0  0  0  0  0  0  0  0  0  0
   14.6733   36.2278   34.9180 C   0  0  0  0  0  0  0  0  0  0  0  0
   13.8226   37.0460   35.5780 N   0  0  0  0  0  0  0  0  0  0  0  0
   16.1636   34.7595   33.1546 C   0  0  0  0  0  0  0  0  0  0  0  0
   15.6515   35.3494   35.4129 C   0  0  0  0  0  0  0  0  0  0  0  0
   16.3791   34.6311   34.5041 N   0  0  0  0  0  0  0  0  0  0  0  0
   15.9001   35.1936   36.8088 N   0  0  0  0  0  0  0  0  0  0  0  0
    9.7782   45.0126   32.1609 H   0  0  0  0  0  0  0  0  0  0  0  0
   10.8144   46.9708   33.0955 H   0  0  0  0  0  0  0  0  0  0  0  0
   11.8840   45.7086   32.9031 H   0  0  0  0  0  0  0  0  0  0  0  0
    7.8021   45.0174   33.6234 H   0  0  0  0  0  0  0  0  0  0  0  0
    8.4450   46.6798   33.4969 H   0  0  0  0  0  0  0  0  0  0  0  0
    9.1135   46.5885   38.0000 H   0  0  0  0  0  0  0  0  0  0  0  0
   10.4829   47.6642   37.5830 H   0  0  0  0  0  0  0  0  0  0  0  0
   12.5490   46.5471   36.3882 H   0  0  0  0  0  0  0  0  0  0  0  0
    9.6399   44.3293   38.6763 H   0  0  0  0  0  0  0  0  0  0  0  0
   14.1499   44.6813   36.6354 H   0  0  0  0  0  0  0  0  0  0  0  0
   11.2530   42.4762   38.9128 H   0  0  0  0  0  0  0  0  0  0  0  0
   13.5065   42.6447   37.8941 H   0  0  0  0  0  0  0  0  0  0  0  0
   11.4018   41.5438   31.4736 H   0  0  0  0  0  0  0  0  0  0  0  0
    9.8320   40.7400   31.7549 H   0  0  0  0  0  0  0  0  0  0  0  0
   11.6983   39.5045   30.3472 H   0  0  0  0  0  0  0  0  0  0  0  0
   10.1090   38.2632   32.6650 H   0  0  0  0  0  0  0  0  0  0  0  0
   13.6656   37.4540   31.2208 H   0  0  0  0  0  0  0  0  0  0  0  0
    8.8967   38.6903   30.8851 H   0  0  0  0  0  0  0  0  0  0  0  0
   11.2846   36.3061   32.5176 H   0  0  0  0  0  0  0  0  0  0  0  0
   10.8523   35.7095   30.4590 H   0  0  0  0  0  0  0  0  0  0  0  0
   12.3355   38.3591   34.7440 H   0  0  0  0  0  0  0  0  0  0  0  0
   16.7570   34.1788   32.4619 H   0  0  0  0  0  0  0  0  0  0  0  0
   15.3529   35.7360   37.5136 H   0  0  0  0  0  0  0  0  0  0  0  0
   16.6360   34.5317   37.1414 H   0  0  0  0  0  0  0  0  0  0  0  0
  1  2  2  0
  1  3  1  0
  3  4  1  0
  4  5  1  0
  6  1  1  0
  7  6  1  0
  6  8  1  0
  8  9  1  0
  9 10  1  0
  9 11  2  0
 10 12  1  0
 12 13  1  0
 13 14  2  0
 15 13  1  0
 14 16  1  0
 17 15  2  0
 16 18  2  0
 18 17  1  0
  4 19  2  0
  4 20  1  0
 21 20  1  0
 21 22  1  0
 22 23  1  0
 22 24  1  0
 23 25  1  0
 24 26  1  0
 24 27  1  0
 27 25  1  0
 25 28  1  0
 27 29  1  0
 30 28  1  0
 31 28  1  0
 32 30  2  0
 30 33  1  0
 34 31  2  0
 35 32  1  0
 33 36  2  0
 33 34  1  0
 37 35  2  0
 37 36  1  0
 36 38  1  0
  6 39  1  6
  7 40  1  0
  7 41  1  0
  8 42  1  0
  8 43  1  0
 12 44  1  0
 12 45  1  0
 14 46  1  0
 15 47  1  0
 16 48  1  0
 17 49  1  0
 18 50  1  0
 21 51  1  0
 21 52  1  0
 22 53  1  0
 24 54  1  0
 25 55  1  0
 26 56  1  0
 27 57  1  0
 29 58  1  0
 31 59  1  0
 35 60  1  0
 38 61  1  0
 38 62  1  0
M  CHG  1   5  -1
M  END
>  <EmbedRMS>  (314) 
0.08935805765429525

$$$$

     RDKit          3D

 62 65  0  0  0  0  0  0  0  0999 V2000
   10.2843   43.7742   33.8067 C   0  0  0  0  0  0  0  0  0  0  0  0
   11.4068   43.5903   34.3635 O   0  0  0  0  0  0  0  0  0  0  0  0
    9.3680   42.7310   33.6985 O   0  0  0  0  0  0  0  0  0  0  0  0
    9.8862   41.2340   34.2826 P   0  0  0  0  0  5  0  0  0  0  0  0
   10.3670   41.4693   35.8732 O   0  0  0  0  0  1  0  0  0  0  0  0
    9.9490   45.1166   33.2549 C   0  0  2  0  0  0  0  0  0  0  0  0
   11.0755   46.0281   33.4733 N   0  0  0  0  0  0  0  0  0  0  0  0
    8.6780   45.6533   33.9429 C   0  0  0  0  0  0  0  0  0  0  0  0
    8.1802   46.9040   33.2868 C   0  0  0  0  0  0  0  0  0  0  0  0
    8.5013   48.1460   33.8411 O   0  0  0  0  0  0  0  0  0  0  0  0
    7.5058   46.8281   32.2234 O   0  0  0  0  0  0  0  0  0  0  0  0
    8.1028   49.3773   33.2496 C   0  0  0  0  0  0  0  0  0  0  0  0
    8.6333   50.5141   34.0724 C   0  0  0  0  0  0  0  0  0  0  0  0
    7.8591   51.0626   35.1083 C   0  0  0  0  0  0  0  0  0  0  0  0
    9.9363   50.9928   33.8580 C   0  0  0  0  0  0  0  0  0  0  0  0
    8.3721   52.0963   35.8985 C   0  0  0  0  0  0  0  0  0  0  0  0
   10.4456   52.0265   34.6505 C   0  0  0  0  0  0  0  0  0  0  0  0
    9.6633   52.5795   35.6682 C   0  0  0  0  0  0  0  0  0  0  0  0
    8.8083   40.1914   34.2078 O   0  0  0  0  0  0  0  0  0  0  0  0
   11.2374   40.7904   33.3655 O   0  0  0  0  0  0  0  0  0  0  0  0
   10.9138   40.6842   31.9928 C   0  0  0  0  0  0  0  0  0  0  0  0
   11.5176   39.3772   31.4393 C   0  0  0  0  0  0  0  0  0  0  0  0
   12.7478   39.0868   32.0755 O   0  0  0  0  0  0  0  0  0  0  0  0
   10.6069   38.1851   31.6656 C   0  0  0  0  0  0  0  0  0  0  0  0
   12.9372   37.6810   32.0290 C   0  0  0  0  0  0  0  0  0  0  0  0
    9.6404   38.0882   30.6475 O   0  0  0  0  0  0  0  0  0  0  0  0
   11.5789   37.0133   31.7045 C   0  0  0  0  0  0  0  0  0  0  0  0
   13.4915   37.2181   33.3239 N   0  0  0  0  0  0  0  0  0  0  0  0
   11.6125   36.3388   30.4673 O   0  0  0  0  0  0  0  0  0  0  0  0
   14.4766   36.3272   33.5730 C   0  0  0  0  0  0  0  0  0  0  0  0
   13.1184   37.6317   34.5690 C   0  0  0  0  0  0  0  0  0  0  0  0
   15.2066   35.6139   32.6741 N   0  0  0  0  0  0  0  0  0  0  0  0
   14.6735   36.2273   34.9184 C   0  0  0  0  0  0  0  0  0  0  0  0
   13.8228   37.0455   35.5785 N   0  0  0  0  0  0  0  0  0  0  0  0
   16.1638   34.7593   33.1548 C   0  0  0  0  0  0  0  0  0  0  0  0
   15.6517   35.3491   35.4132 C   0  0  0  0  0  0  0  0  0  0  0  0
   16.3792   34.6308   34.5043 N   0  0  0  0  0  0  0  0  0  0  0  0
   15.9004   35.1932   36.8091 N   0  0  0  0  0  0  0  0  0  0  0  0
    9.7630   45.0053   32.1624 H   0  0  0  0  0  0  0  0  0  0  0  0
   10.8471   46.9549   33.0469 H   0  0  0  0  0  0  0  0  0  0  0  0
   11.8959   45.6760   32.9268 H   0  0  0  0  0  0  0  0  0  0  0  0
    8.8865   45.8570   35.0162 H   0  0  0  0  0  0  0  0  0  0  0  0
    7.8673   44.8932   33.8959 H   0  0  0  0  0  0  0  0  0  0  0  0
    8.5009   49.4416   32.2130 H   0  0  0  0  0  0  0  0  0  0  0  0
    6.9930   49.4251   33.1949 H   0  0  0  0  0  0  0  0  0  0  0  0
    6.8611   50.6904   35.3040 H   0  0  0  0  0  0  0  0  0  0  0  0
   10.5563   50.5655   33.0795 H   0  0  0  0  0  0  0  0  0  0  0  0
    7.7702   52.5199   36.6920 H   0  0  0  0  0  0  0  0  0  0  0  0
   11.4482   52.3960   34.4782 H   0  0  0  0  0  0  0  0  0  0  0  0
   10.0594   53.3785   36.2816 H   0  0  0  0  0  0  0  0  0  0  0  0
   11.3854   41.5413   31.4661 H   0  0  0  0  0  0  0  0  0  0  0  0
    9.8236   40.7188   31.7567 H   0  0  0  0  0  0  0  0  0  0  0  0
   11.7008   39.5015   30.3469 H   0  0  0  0  0  0  0  0  0  0  0  0
   10.1099   38.2752   32.6605 H   0  0  0  0  0  0  0  0  0  0  0  0
   13.6713   37.4590   31.2227 H   0  0  0  0  0  0  0  0  0  0  0  0
    9.0033   37.3835   30.9351 H   0  0  0  0  0  0  0  0  0  0  0  0
   11.2705   36.3048   32.5088 H   0  0  0  0  0  0  0  0  0  0  0  0
   12.1442   35.5135   30.6141 H   0  0  0  0  0  0  0  0  0  0  0  0
   12.3362   38.3592   34.7444 H   0  0  0  0  0  0  0  0  0  0  0  0
   16.7571   34.1786   32.4620 H   0  0  0  0  0  0  0  0  0  0  0  0
   15.3532   35.7355   37.5139 H   0  0  0  0  0  0  0  0  0  0  0  0
   16.6363   34.5314   37.1416 H   0  0  0  0  0  0  0  0  0  0  0  0
  1  2  2  0
  1  3  1  0
  3  4  1  0
  4  5  1  0
  6  1  1  0
  7  6  1  0
  6  8  1  0
  8  9  1  0
  9 10  1  0
  9 11  2  0
 10 12  1  0
 12 13  1  0
 13 14  2  0
 15 13  1  0
 14 16  1  0
 17 15  2  0
 16 18  2  0
 18 17  1  0
  4 19  2  0
  4 20  1  0
 21 20  1  0
 21 22  1  0
 22 23  1  0
 22 24  1  0
 23 25  1  0
 24 26  1  0
 24 27  1  0
 27 25  1  0
 25 28  1  0
 27 29  1  0
 30 28  1  0
 31 28  1  0
 32 30  2  0
 30 33  1  0
 34 31  2  0
 35 32  1  0
 33 36  2  0
 33 34  1  0
 37 35  2  0
 37 36  1  0
 36 38  1  0
  6 39  1  6
  7 40  1  0
  7 41  1  0
  8 42  1  0
  8 43  1  0
 12 44  1  0
 12 45  1  0
 14 46  1  0
 15 47  1  0
 16 48  1  0
 17 49  1  0
 18 50  1  0
 21 51  1  0
 21 52  1  0
 22 53  1  0
 24 54  1  0
 25 55  1  0
 26 56  1  0
 27 57  1  0
 29 58  1  0
 31 59  1  0
 35 60  1  0
 38 61  1  0
 38 62  1  0
M  CHG  1   5  -1
M  END
>  <EmbedRMS>  (315) 
0.08891736437525075

$$$$

     RDKit          3D

 62 65  0  0  0  0  0  0  0  0999 V2000
   10.2810   43.7751   33.8077 C   0  0  0  0  0  0  0  0  0  0  0  0
   11.4039   43.5911   34.3640 O   0  0  0  0  0  0  0  0  0  0  0  0
    9.3695   42.7287   33.6944 O   0  0  0  0  0  0  0  0  0  0  0  0
    9.8869   41.2334   34.2823 P   0  0  0  0  0  5  0  0  0  0  0  0
   10.3661   41.4706   35.8730 O   0  0  0  0  0  1  0  0  0  0  0  0
    9.9451   45.1235   33.2623 C   0  0  2  0  0  0  0  0  0  0  0  0
   11.0813   46.0235   33.4682 N   0  0  0  0  0  0  0  0  0  0  0  0
    8.6975   45.7035   33.9624 C   0  0  0  0  0  0  0  0  0  0  0  0
    7.4385   45.0127   33.5346 C   0  0  0  0  0  0  0  0  0  0  0  0
    6.8987   44.0044   34.3376 O   0  0  0  0  0  0  0  0  0  0  0  0
    6.8924   45.3265   32.4416 O   0  0  0  0  0  0  0  0  0  0  0  0
    5.7101   43.3012   33.9941 C   0  0  0  0  0  0  0  0  0  0  0  0
    5.4639   42.2226   35.0079 C   0  0  0  0  0  0  0  0  0  0  0  0
    5.6965   40.8743   34.6888 C   0  0  0  0  0  0  0  0  0  0  0  0
    5.0429   42.5610   36.3041 C   0  0  0  0  0  0  0  0  0  0  0  0
    5.4997   39.8793   35.6513 C   0  0  0  0  0  0  0  0  0  0  0  0
    4.8457   41.5628   37.2634 C   0  0  0  0  0  0  0  0  0  0  0  0
    5.0736   40.2229   36.9372 C   0  0  0  0  0  0  0  0  0  0  0  0
    8.8111   40.1892   34.2076 O   0  0  0  0  0  0  0  0  0  0  0  0
   11.2382   40.7901   33.3657 O   0  0  0  0  0  0  0  0  0  0  0  0
   10.9142   40.6842   31.9931 C   0  0  0  0  0  0  0  0  0  0  0  0
   11.5176   39.3772   31.4393 C   0  0  0  0  0  0  0  0  0  0  0  0
   12.7479   39.0867   32.0754 O   0  0  0  0  0  0  0  0  0  0  0  0
   10.6068   38.1852   31.6658 C   0  0  0  0  0  0  0  0  0  0  0  0
   12.9371   37.6809   32.0290 C   0  0  0  0  0  0  0  0  0  0  0  0
    9.6402   38.0883   30.6478 O   0  0  0  0  0  0  0  0  0  0  0  0
   11.5787   37.0134   31.7046 C   0  0  0  0  0  0  0  0  0  0  0  0
   13.4914   37.2181   33.3239 N   0  0  0  0  0  0  0  0  0  0  0  0
   11.6122   36.3389   30.4674 O   0  0  0  0  0  0  0  0  0  0  0  0
   14.4766   36.3272   33.5730 C   0  0  0  0  0  0  0  0  0  0  0  0
   13.1184   37.6317   34.5690 C   0  0  0  0  0  0  0  0  0  0  0  0
   15.2066   35.6139   32.6741 N   0  0  0  0  0  0  0  0  0  0  0  0
   14.6735   36.2274   34.9184 C   0  0  0  0  0  0  0  0  0  0  0  0
   13.8227   37.0455   35.5785 N   0  0  0  0  0  0  0  0  0  0  0  0
   16.1638   34.7593   33.1548 C   0  0  0  0  0  0  0  0  0  0  0  0
   15.6517   35.3491   35.4132 C   0  0  0  0  0  0  0  0  0  0  0  0
   16.3792   34.6308   34.5043 N   0  0  0  0  0  0  0  0  0  0  0  0
   15.9003   35.1932   36.8091 N   0  0  0  0  0  0  0  0  0  0  0  0
    9.7498   45.0293   32.1696 H   0  0  0  0  0  0  0  0  0  0  0  0
   11.8855   45.6774   32.8942 H   0  0  0  0  0  0  0  0  0  0  0  0
   10.8422   46.9594   33.0664 H   0  0  0  0  0  0  0  0  0  0  0  0
    8.5946   46.7826   33.7151 H   0  0  0  0  0  0  0  0  0  0  0  0
    8.8084   45.6291   35.0666 H   0  0  0  0  0  0  0  0  0  0  0  0
    4.8501   44.0055   33.9827 H   0  0  0  0  0  0  0  0  0  0  0  0
    5.8141   42.8651   32.9761 H   0  0  0  0  0  0  0  0  0  0  0  0
    6.0324   40.5932   33.6984 H   0  0  0  0  0  0  0  0  0  0  0  0
    4.8714   43.5967   36.5708 H   0  0  0  0  0  0  0  0  0  0  0  0
    5.6803   38.8419   35.4009 H   0  0  0  0  0  0  0  0  0  0  0  0
    4.5196   41.8282   38.2608 H   0  0  0  0  0  0  0  0  0  0  0  0
    4.9226   39.4516   37.6814 H   0  0  0  0  0  0  0  0  0  0  0  0
    9.8239   40.7189   31.7571 H   0  0  0  0  0  0  0  0  0  0  0  0
   11.3856   41.5412   31.4664 H   0  0  0  0  0  0  0  0  0  0  0  0
   11.7006   39.5016   30.3469 H   0  0  0  0  0  0  0  0  0  0  0  0
   10.1098   38.2754   32.6608 H   0  0  0  0  0  0  0  0  0  0  0  0
   13.6712   37.4588   31.2227 H   0  0  0  0  0  0  0  0  0  0  0  0
    9.0020   37.3850   30.9363 H   0  0  0  0  0  0  0  0  0  0  0  0
   11.2704   36.3048   32.5089 H   0  0  0  0  0  0  0  0  0  0  0  0
   12.1439   35.5135   30.6142 H   0  0  0  0  0  0  0  0  0  0  0  0
   12.3360   38.3591   34.7444 H   0  0  0  0  0  0  0  0  0  0  0  0
   16.7571   34.1787   32.4620 H   0  0  0  0  0  0  0  0  0  0  0  0
   15.3531   35.7355   37.5139 H   0  0  0  0  0  0  0  0  0  0  0  0
   16.6362   34.5314   37.1416 H   0  0  0  0  0  0  0  0  0  0  0  0
  1  2  2  0
  1  3  1  0
  3  4  1  0
  4  5  1  0
  6  1  1  0
  7  6  1  0
  6  8  1  0
  8  9  1  0
  9 10  1  0
  9 11  2  0
 10 12  1  0
 12 13  1  0
 13 14  2  0
 15 13  1  0
 14 16  1  0
 17 15  2  0
 16 18  2  0
 18 17  1  0
  4 19  2  0
  4 20  1  0
 21 20  1  0
 21 22  1  0
 22 23  1  0
 22 24  1  0
 23 25  1  0
 24 26  1  0
 24 27  1  0
 27 25  1  0
 25 28  1  0
 27 29  1  0
 30 28  1  0
 31 28  1  0
 32 30  2  0
 30 33  1  0
 34 31  2  0
 35 32  1  0
 33 36  2  0
 33 34  1  0
 37 35  2  0
 37 36  1  0
 36 38  1  0
  6 39  1  6
  7 40  1  0
  7 41  1  0
  8 42  1  0
  8 43  1  0
 12 44  1  0
 12 45  1  0
 14 46  1  0
 15 47  1  0
 16 48  1  0
 17 49  1  0
 18 50  1  0
 21 51  1  0
 21 52  1  0
 22 53  1  0
 24 54  1  0
 25 55  1  0
 26 56  1  0
 27 57  1  0
 29 58  1  0
 31 59  1  0
 35 60  1  0
 38 61  1  0
 38 62  1  0
M  CHG  1   5  -1
M  END
>  <EmbedRMS>  (316) 
0.0890931818644714

$$$$

     RDKit          3D

 62 65  0  0  0  0  0  0  0  0999 V2000
   10.2832   43.7751   33.8074 C   0  0  0  0  0  0  0  0  0  0  0  0
   11.4089   43.5906   34.3573 O   0  0  0  0  0  0  0  0  0  0  0  0
    9.3667   42.7318   33.7015 O   0  0  0  0  0  0  0  0  0  0  0  0
    9.8860   41.2347   34.2846 P   0  0  0  0  0  5  0  0  0  0  0  0
   10.3661   41.4698   35.8752 O   0  0  0  0  0  1  0  0  0  0  0  0
    9.9538   45.1121   33.2433 C   0  0  2  0  0  0  0  0  0  0  0  0
   11.0718   46.0274   33.4851 N   0  0  0  0  0  0  0  0  0  0  0  0
    8.6377   45.6450   33.8537 C   0  0  0  0  0  0  0  0  0  0  0  0
    8.1956   46.9365   33.2071 C   0  0  0  0  0  0  0  0  0  0  0  0
    7.9072   48.1031   33.9324 O   0  0  0  0  0  0  0  0  0  0  0  0
    8.0410   46.9616   31.9574 O   0  0  0  0  0  0  0  0  0  0  0  0
    8.0033   48.2469   35.3495 C   0  0  0  0  0  0  0  0  0  0  0  0
    9.4410   48.3107   35.7917 C   0  0  0  0  0  0  0  0  0  0  0  0
    9.8856   47.5427   36.8813 C   0  0  0  0  0  0  0  0  0  0  0  0
   10.3417   49.1747   35.1463 C   0  0  0  0  0  0  0  0  0  0  0  0
   11.2189   47.6153   37.2966 C   0  0  0  0  0  0  0  0  0  0  0  0
   11.6741   49.2439   35.5646 C   0  0  0  0  0  0  0  0  0  0  0  0
   12.1131   48.4628   36.6370 C   0  0  0  0  0  0  0  0  0  0  0  0
    8.8088   40.1914   34.2082 O   0  0  0  0  0  0  0  0  0  0  0  0
   11.2385   40.7915   33.3694 O   0  0  0  0  0  0  0  0  0  0  0  0
   10.9187   40.6907   31.9960 C   0  0  0  0  0  0  0  0  0  0  0  0
   11.5174   39.3824   31.4413 C   0  0  0  0  0  0  0  0  0  0  0  0
   12.7494   39.0893   32.0757 O   0  0  0  0  0  0  0  0  0  0  0  0
   10.6036   38.1900   31.6660 C   0  0  0  0  0  0  0  0  0  0  0  0
   12.9401   37.6834   32.0276 C   0  0  0  0  0  0  0  0  0  0  0  0
    9.6376   38.0785   30.6474 O   0  0  0  0  0  0  0  0  0  0  0  0
   11.5803   37.0204   31.6937 C   0  0  0  0  0  0  0  0  0  0  0  0
   13.4902   37.2177   33.3237 N   0  0  0  0  0  0  0  0  0  0  0  0
   11.6118   36.3193   30.4680 O   0  0  0  0  0  0  0  0  0  0  0  0
   14.4758   36.3271   33.5731 C   0  0  0  0  0  0  0  0  0  0  0  0
   13.1176   37.6317   34.5688 C   0  0  0  0  0  0  0  0  0  0  0  0
   15.2064   35.6142   32.6742 N   0  0  0  0  0  0  0  0  0  0  0  0
   14.6729   36.2274   34.9184 C   0  0  0  0  0  0  0  0  0  0  0  0
   13.8221   37.0457   35.5783 N   0  0  0  0  0  0  0  0  0  0  0  0
   16.1637   34.7597   33.1549 C   0  0  0  0  0  0  0  0  0  0  0  0
   15.6514   35.3493   35.4133 C   0  0  0  0  0  0  0  0  0  0  0  0
   16.3791   34.6312   34.5044 N   0  0  0  0  0  0  0  0  0  0  0  0
   15.9001   35.1935   36.8091 N   0  0  0  0  0  0  0  0  0  0  0  0
    9.8261   44.9837   32.1457 H   0  0  0  0  0  0  0  0  0  0  0  0
   10.9045   46.9181   32.9635 H   0  0  0  0  0  0  0  0  0  0  0  0
   11.1206   46.2622   34.5031 H   0  0  0  0  0  0  0  0  0  0  0  0
    7.8281   44.9008   33.6914 H   0  0  0  0  0  0  0  0  0  0  0  0
    8.7597   45.7494   34.9489 H   0  0  0  0  0  0  0  0  0  0  0  0
    7.4455   47.4278   35.8532 H   0  0  0  0  0  0  0  0  0  0  0  0
    7.5115   49.1992   35.6381 H   0  0  0  0  0  0  0  0  0  0  0  0
    9.2043   46.8828   37.4038 H   0  0  0  0  0  0  0  0  0  0  0  0
   10.0136   49.7885   34.3166 H   0  0  0  0  0  0  0  0  0  0  0  0
   11.5588   47.0148   38.1304 H   0  0  0  0  0  0  0  0  0  0  0  0
   12.3660   49.9043   35.0581 H   0  0  0  0  0  0  0  0  0  0  0  0
   13.1449   48.5172   36.9593 H   0  0  0  0  0  0  0  0  0  0  0  0
   11.3992   41.5455   31.4739 H   0  0  0  0  0  0  0  0  0  0  0  0
    9.8307   40.7396   31.7563 H   0  0  0  0  0  0  0  0  0  0  0  0
   11.6989   39.5091   30.3490 H   0  0  0  0  0  0  0  0  0  0  0  0
   10.1130   38.2589   32.6664 H   0  0  0  0  0  0  0  0  0  0  0  0
   13.6800   37.4628   31.2265 H   0  0  0  0  0  0  0  0  0  0  0  0
    8.8952   38.6908   30.8891 H   0  0  0  0  0  0  0  0  0  0  0  0
   11.2830   36.3060   32.4929 H   0  0  0  0  0  0  0  0  0  0  0  0
   11.8859   36.9589   29.7593 H   0  0  0  0  0  0  0  0  0  0  0  0
   12.3361   38.3600   34.7442 H   0  0  0  0  0  0  0  0  0  0  0  0
   16.7573   34.1793   32.4621 H   0  0  0  0  0  0  0  0  0  0  0  0
   15.3528   35.7356   37.5140 H   0  0  0  0  0  0  0  0  0  0  0  0
   16.6362   34.5318   37.1416 H   0  0  0  0  0  0  0  0  0  0  0  0
  1  2  2  0
  1  3  1  0
  3  4  1  0
  4  5  1  0
  6  1  1  0
  7  6  1  0
  6  8  1  0
  8  9  1  0
  9 10  1  0
  9 11  2  0
 10 12  1  0
 12 13  1  0
 13 14  2  0
 15 13  1  0
 14 16  1  0
 17 15  2  0
 16 18  2  0
 18 17  1  0
  4 19  2  0
  4 20  1  0
 21 20  1  0
 21 22  1  0
 22 23  1  0
 22 24  1  0
 23 25  1  0
 24 26  1  0
 24 27  1  0
 27 25  1  0
 25 28  1  0
 27 29  1  0
 30 28  1  0
 31 28  1  0
 32 30  2  0
 30 33  1  0
 34 31  2  0
 35 32  1  0
 33 36  2  0
 33 34  1  0
 37 35  2  0
 37 36  1  0
 36 38  1  0
  6 39  1  6
  7 40  1  0
  7 41  1  0
  8 42  1  0
  8 43  1  0
 12 44  1  0
 12 45  1  0
 14 46  1  0
 15 47  1  0
 16 48  1  0
 17 49  1  0
 18 50  1  0
 21 51  1  0
 21 52  1  0
 22 53  1  0
 24 54  1  0
 25 55  1  0
 26 56  1  0
 27 57  1  0
 29 58  1  0
 31 59  1  0
 35 60  1  0
 38 61  1  0
 38 62  1  0
M  CHG  1   5  -1
M  END
>  <EmbedRMS>  (317) 
0.08803600733808108

$$$$

     RDKit          3D

 62 65  0  0  0  0  0  0  0  0999 V2000
   10.2829   43.7755   33.8076 C   0  0  0  0  0  0  0  0  0  0  0  0
   11.4086   43.5914   34.3577 O   0  0  0  0  0  0  0  0  0  0  0  0
    9.3667   42.7319   33.7013 O   0  0  0  0  0  0  0  0  0  0  0  0
    9.8860   41.2347   34.2842 P   0  0  0  0  0  5  0  0  0  0  0  0
   10.3669   41.4696   35.8746 O   0  0  0  0  0  1  0  0  0  0  0  0
    9.9534   45.1118   33.2434 C   0  0  2  0  0  0  0  0  0  0  0  0
   11.0726   46.0268   33.4848 N   0  0  0  0  0  0  0  0  0  0  0  0
    8.6400   45.6442   33.8545 C   0  0  0  0  0  0  0  0  0  0  0  0
    8.2241   46.9356   33.2219 C   0  0  0  0  0  0  0  0  0  0  0  0
    8.5473   48.1442   33.8488 O   0  0  0  0  0  0  0  0  0  0  0  0
    7.6216   46.9238   32.1139 O   0  0  0  0  0  0  0  0  0  0  0  0
    8.1851   49.4194   33.3240 C   0  0  0  0  0  0  0  0  0  0  0  0
    6.7056   49.6476   33.4730 C   0  0  0  0  0  0  0  0  0  0  0  0
    5.8684   49.6823   32.3452 C   0  0  0  0  0  0  0  0  0  0  0  0
    6.1457   49.8009   34.7518 C   0  0  0  0  0  0  0  0  0  0  0  0
    4.4917   49.8762   32.4969 C   0  0  0  0  0  0  0  0  0  0  0  0
    4.7687   49.9947   34.8990 C   0  0  0  0  0  0  0  0  0  0  0  0
    3.9424   50.0330   33.7724 C   0  0  0  0  0  0  0  0  0  0  0  0
    8.8086   40.1916   34.2086 O   0  0  0  0  0  0  0  0  0  0  0  0
   11.2376   40.7907   33.3679 O   0  0  0  0  0  0  0  0  0  0  0  0
   10.9159   40.6890   31.9949 C   0  0  0  0  0  0  0  0  0  0  0  0
   11.5252   39.3872   31.4365 C   0  0  0  0  0  0  0  0  0  0  0  0
   12.7486   39.0879   32.0804 O   0  0  0  0  0  0  0  0  0  0  0  0
   10.6100   38.1909   31.6471 C   0  0  0  0  0  0  0  0  0  0  0  0
   12.9348   37.6808   32.0292 C   0  0  0  0  0  0  0  0  0  0  0  0
    9.6126   38.0874   30.6547 O   0  0  0  0  0  0  0  0  0  0  0  0
   11.5767   37.0133   31.7026 C   0  0  0  0  0  0  0  0  0  0  0  0
   13.4901   37.2165   33.3236 N   0  0  0  0  0  0  0  0  0  0  0  0
   11.6321   36.3231   30.4741 O   0  0  0  0  0  0  0  0  0  0  0  0
   14.4763   36.3266   33.5727 C   0  0  0  0  0  0  0  0  0  0  0  0
   13.1179   37.6307   34.5689 C   0  0  0  0  0  0  0  0  0  0  0  0
   15.2065   35.6135   32.6738 N   0  0  0  0  0  0  0  0  0  0  0  0
   14.6736   36.2272   34.9182 C   0  0  0  0  0  0  0  0  0  0  0  0
   13.8228   37.0453   35.5783 N   0  0  0  0  0  0  0  0  0  0  0  0
   16.1640   34.7592   33.1547 C   0  0  0  0  0  0  0  0  0  0  0  0
   15.6519   35.3491   35.4131 C   0  0  0  0  0  0  0  0  0  0  0  0
   16.3795   34.6309   34.5042 N   0  0  0  0  0  0  0  0  0  0  0  0
   15.9005   35.1933   36.8089 N   0  0  0  0  0  0  0  0  0  0  0  0
    9.8206   44.9854   32.1457 H   0  0  0  0  0  0  0  0  0  0  0  0
   11.0776   46.3245   34.4884 H   0  0  0  0  0  0  0  0  0  0  0  0
   10.9421   46.8853   32.9021 H   0  0  0  0  0  0  0  0  0  0  0  0
    7.8252   44.9027   33.7031 H   0  0  0  0  0  0  0  0  0  0  0  0
    8.7584   45.7915   34.9504 H   0  0  0  0  0  0  0  0  0  0  0  0
    8.5076   49.4979   32.2625 H   0  0  0  0  0  0  0  0  0  0  0  0
    8.7290   50.2039   33.8914 H   0  0  0  0  0  0  0  0  0  0  0  0
    6.2790   49.5573   31.3510 H   0  0  0  0  0  0  0  0  0  0  0  0
    6.7757   49.7684   35.6322 H   0  0  0  0  0  0  0  0  0  0  0  0
    3.8504   49.9031   31.6254 H   0  0  0  0  0  0  0  0  0  0  0  0
    4.3420   50.1135   35.8866 H   0  0  0  0  0  0  0  0  0  0  0  0
    2.8766   50.1823   33.8880 H   0  0  0  0  0  0  0  0  0  0  0  0
    9.8258   40.7203   31.7580 H   0  0  0  0  0  0  0  0  0  0  0  0
   11.3842   41.5506   31.4726 H   0  0  0  0  0  0  0  0  0  0  0  0
   11.7273   39.5285   30.3502 H   0  0  0  0  0  0  0  0  0  0  0  0
   10.1122   38.2732   32.6390 H   0  0  0  0  0  0  0  0  0  0  0  0
   13.6685   37.4592   31.2224 H   0  0  0  0  0  0  0  0  0  0  0  0
   10.0514   38.1110   29.7648 H   0  0  0  0  0  0  0  0  0  0  0  0
   11.2801   36.3129   32.5195 H   0  0  0  0  0  0  0  0  0  0  0  0
   10.8625   35.6960   30.4645 H   0  0  0  0  0  0  0  0  0  0  0  0
   12.3356   38.3581   34.7445 H   0  0  0  0  0  0  0  0  0  0  0  0
   16.7575   34.1787   32.4619 H   0  0  0  0  0  0  0  0  0  0  0  0
   15.3531   35.7355   37.5138 H   0  0  0  0  0  0  0  0  0  0  0  0
   16.6364   34.5315   37.1415 H   0  0  0  0  0  0  0  0  0  0  0  0
  1  2  2  0
  1  3  1  0
  3  4  1  0
  4  5  1  0
  6  1  1  0
  7  6  1  0
  6  8  1  0
  8  9  1  0
  9 10  1  0
  9 11  2  0
 10 12  1  0
 12 13  1  0
 13 14  2  0
 15 13  1  0
 14 16  1  0
 17 15  2  0
 16 18  2  0
 18 17  1  0
  4 19  2  0
  4 20  1  0
 21 20  1  0
 21 22  1  0
 22 23  1  0
 22 24  1  0
 23 25  1  0
 24 26  1  0
 24 27  1  0
 27 25  1  0
 25 28  1  0
 27 29  1  0
 30 28  1  0
 31 28  1  0
 32 30  2  0
 30 33  1  0
 34 31  2  0
 35 32  1  0
 33 36  2  0
 33 34  1  0
 37 35  2  0
 37 36  1  0
 36 38  1  0
  6 39  1  6
  7 40  1  0
  7 41  1  0
  8 42  1  0
  8 43  1  0
 12 44  1  0
 12 45  1  0
 14 46  1  0
 15 47  1  0
 16 48  1  0
 17 49  1  0
 18 50  1  0
 21 51  1  0
 21 52  1  0
 22 53  1  0
 24 54  1  0
 25 55  1  0
 26 56  1  0
 27 57  1  0
 29 58  1  0
 31 59  1  0
 35 60  1  0
 38 61  1  0
 38 62  1  0
M  CHG  1   5  -1
M  END
>  <EmbedRMS>  (318) 
0.08785780282287443

$$$$

     RDKit          3D

 62 65  0  0  0  0  0  0  0  0999 V2000
   10.2866   43.7709   33.8016 C   0  0  0  0  0  0  0  0  0  0  0  0
   11.4090   43.5868   34.3579 O   0  0  0  0  0  0  0  0  0  0  0  0
    9.3671   42.7307   33.6982 O   0  0  0  0  0  0  0  0  0  0  0  0
    9.8855   41.2342   34.2833 P   0  0  0  0  0  5  0  0  0  0  0  0
   10.3665   41.4704   35.8735 O   0  0  0  0  0  1  0  0  0  0  0  0
    9.9515   45.1164   33.2558 C   0  0  2  0  0  0  0  0  0  0  0  0
   11.0720   46.0322   33.4787 N   0  0  0  0  0  0  0  0  0  0  0  0
    8.6617   45.6676   33.9003 C   0  0  0  0  0  0  0  0  0  0  0  0
    8.7705   45.7519   35.3938 C   0  0  0  0  0  0  0  0  0  0  0  0
    9.5779   46.7375   35.9709 O   0  0  0  0  0  0  0  0  0  0  0  0
    8.1794   44.9010   36.1133 O   0  0  0  0  0  0  0  0  0  0  0  0
    9.9966   46.6981   37.3326 C   0  0  0  0  0  0  0  0  0  0  0  0
   10.9850   45.5813   37.5320 C   0  0  0  0  0  0  0  0  0  0  0  0
   12.2616   45.6653   36.9527 C   0  0  0  0  0  0  0  0  0  0  0  0
   10.6238   44.4219   38.2383 C   0  0  0  0  0  0  0  0  0  0  0  0
   13.1673   44.6087   37.0879 C   0  0  0  0  0  0  0  0  0  0  0  0
   11.5330   43.3678   38.3721 C   0  0  0  0  0  0  0  0  0  0  0  0
   12.8033   43.4607   37.7968 C   0  0  0  0  0  0  0  0  0  0  0  0
    8.8078   40.1915   34.2088 O   0  0  0  0  0  0  0  0  0  0  0  0
   11.2369   40.7902   33.3663 O   0  0  0  0  0  0  0  0  0  0  0  0
   10.9137   40.6844   31.9935 C   0  0  0  0  0  0  0  0  0  0  0  0
   11.5175   39.3774   31.4396 C   0  0  0  0  0  0  0  0  0  0  0  0
   12.7478   39.0869   32.0757 O   0  0  0  0  0  0  0  0  0  0  0  0
   10.6069   38.1852   31.6658 C   0  0  0  0  0  0  0  0  0  0  0  0
   12.9372   37.6812   32.0291 C   0  0  0  0  0  0  0  0  0  0  0  0
    9.6404   38.0883   30.6476 O   0  0  0  0  0  0  0  0  0  0  0  0
   11.5789   37.0135   31.7046 C   0  0  0  0  0  0  0  0  0  0  0  0
   13.4915   37.2182   33.3240 N   0  0  0  0  0  0  0  0  0  0  0  0
   11.6125   36.3389   30.4674 O   0  0  0  0  0  0  0  0  0  0  0  0
   14.4765   36.3272   33.5731 C   0  0  0  0  0  0  0  0  0  0  0  0
   13.1185   37.6318   34.5691 C   0  0  0  0  0  0  0  0  0  0  0  0
   15.2066   35.6139   32.6741 N   0  0  0  0  0  0  0  0  0  0  0  0
   14.6735   36.2274   34.9185 C   0  0  0  0  0  0  0  0  0  0  0  0
   13.8228   37.0457   35.5786 N   0  0  0  0  0  0  0  0  0  0  0  0
   16.1637   34.7593   33.1548 C   0  0  0  0  0  0  0  0  0  0  0  0
   15.6517   35.3491   35.4132 C   0  0  0  0  0  0  0  0  0  0  0  0
   16.3792   34.6309   34.5043 N   0  0  0  0  0  0  0  0  0  0  0  0
   15.9004   35.1933   36.8091 N   0  0  0  0  0  0  0  0  0  0  0  0
    9.7778   45.0129   32.1610 H   0  0  0  0  0  0  0  0  0  0  0  0
   11.8839   45.7085   32.9029 H   0  0  0  0  0  0  0  0  0  0  0  0
   10.8145   46.9709   33.0955 H   0  0  0  0  0  0  0  0  0  0  0  0
    7.8020   45.0180   33.6240 H   0  0  0  0  0  0  0  0  0  0  0  0
    8.4453   46.6802   33.4975 H   0  0  0  0  0  0  0  0  0  0  0  0
    9.1139   46.5892   38.0004 H   0  0  0  0  0  0  0  0  0  0  0  0
   10.4844   47.6636   37.5833 H   0  0  0  0  0  0  0  0  0  0  0  0
   12.5497   46.5441   36.3890 H   0  0  0  0  0  0  0  0  0  0  0  0
    9.6385   44.3301   38.6780 H   0  0  0  0  0  0  0  0  0  0  0  0
   14.1490   44.6772   36.6373 H   0  0  0  0  0  0  0  0  0  0  0  0
   11.2501   42.4757   38.9156 H   0  0  0  0  0  0  0  0  0  0  0  0
   13.5038   42.6417   37.8971 H   0  0  0  0  0  0  0  0  0  0  0  0
    9.8235   40.7190   31.7573 H   0  0  0  0  0  0  0  0  0  0  0  0
   11.3853   41.5415   31.4671 H   0  0  0  0  0  0  0  0  0  0  0  0
   11.7006   39.5020   30.3473 H   0  0  0  0  0  0  0  0  0  0  0  0
   10.1097   38.2752   32.6606 H   0  0  0  0  0  0  0  0  0  0  0  0
   13.6714   37.4592   31.2228 H   0  0  0  0  0  0  0  0  0  0  0  0
    9.0033   37.3837   30.9351 H   0  0  0  0  0  0  0  0  0  0  0  0
   11.2706   36.3049   32.5089 H   0  0  0  0  0  0  0  0  0  0  0  0
   12.1443   35.5137   30.6141 H   0  0  0  0  0  0  0  0  0  0  0  0
   12.3364   38.3595   34.7446 H   0  0  0  0  0  0  0  0  0  0  0  0
   16.7570   34.1787   32.4620 H   0  0  0  0  0  0  0  0  0  0  0  0
   16.6362   34.5314   37.1416 H   0  0  0  0  0  0  0  0  0  0  0  0
   15.3532   35.7356   37.5139 H   0  0  0  0  0  0  0  0  0  0  0  0
  1  2  2  0
  1  3  1  0
  3  4  1  0
  4  5  1  0
  6  1  1  0
  7  6  1  0
  6  8  1  0
  8  9  1  0
  9 10  1  0
  9 11  2  0
 10 12  1  0
 12 13  1  0
 13 14  2  0
 15 13  1  0
 14 16  1  0
 17 15  2  0
 16 18  2  0
 18 17  1  0
  4 19  2  0
  4 20  1  0
 21 20  1  0
 21 22  1  0
 22 23  1  0
 22 24  1  0
 23 25  1  0
 24 26  1  0
 24 27  1  0
 27 25  1  0
 25 28  1  0
 27 29  1  0
 30 28  1  0
 31 28  1  0
 32 30  2  0
 30 33  1  0
 34 31  2  0
 35 32  1  0
 33 36  2  0
 33 34  1  0
 37 35  2  0
 37 36  1  0
 36 38  1  0
  6 39  1  6
  7 40  1  0
  7 41  1  0
  8 42  1  0
  8 43  1  0
 12 44  1  0
 12 45  1  0
 14 46  1  0
 15 47  1  0
 16 48  1  0
 17 49  1  0
 18 50  1  0
 21 51  1  0
 21 52  1  0
 22 53  1  0
 24 54  1  0
 25 55  1  0
 26 56  1  0
 27 57  1  0
 29 58  1  0
 31 59  1  0
 35 60  1  0
 38 61  1  0
 38 62  1  0
M  CHG  1   5  -1
M  END
>  <EmbedRMS>  (319) 
0.08873338572972267

$$$$

     RDKit          3D

 62 65  0  0  0  0  0  0  0  0999 V2000
   10.2843   43.7743   33.8068 C   0  0  0  0  0  0  0  0  0  0  0  0
   11.4068   43.5903   34.3635 O   0  0  0  0  0  0  0  0  0  0  0  0
    9.3678   42.7311   33.6989 O   0  0  0  0  0  0  0  0  0  0  0  0
    9.8856   41.2344   34.2840 P   0  0  0  0  0  5  0  0  0  0  0  0
   10.3659   41.4699   35.8745 O   0  0  0  0  0  1  0  0  0  0  0  0
    9.9490   45.1167   33.2551 C   0  0  2  0  0  0  0  0  0  0  0  0
   11.0756   46.0281   33.4732 N   0  0  0  0  0  0  0  0  0  0  0  0
    8.6782   45.6534   33.9435 C   0  0  0  0  0  0  0  0  0  0  0  0
    8.1815   46.9054   33.2892 C   0  0  0  0  0  0  0  0  0  0  0  0
    8.5036   48.1463   33.8456 O   0  0  0  0  0  0  0  0  0  0  0  0
    7.5073   46.8319   32.2256 O   0  0  0  0  0  0  0  0  0  0  0  0
    8.1066   49.3789   33.2559 C   0  0  0  0  0  0  0  0  0  0  0  0
    8.6383   50.5138   34.0806 C   0  0  0  0  0  0  0  0  0  0  0  0
    9.9425   50.9902   33.8683 C   0  0  0  0  0  0  0  0  0  0  0  0
    7.8640   51.0628   35.1160 C   0  0  0  0  0  0  0  0  0  0  0  0
   10.4529   52.0220   34.6625 C   0  0  0  0  0  0  0  0  0  0  0  0
    8.3780   52.0947   35.9079 C   0  0  0  0  0  0  0  0  0  0  0  0
    9.6705   52.5756   35.6798 C   0  0  0  0  0  0  0  0  0  0  0  0
    8.8081   40.1914   34.2083 O   0  0  0  0  0  0  0  0  0  0  0  0
   11.2373   40.7904   33.3686 O   0  0  0  0  0  0  0  0  0  0  0  0
   10.9157   40.6897   31.9956 C   0  0  0  0  0  0  0  0  0  0  0  0
   11.5271   39.3897   31.4372 C   0  0  0  0  0  0  0  0  0  0  0  0
   12.7508   39.0915   32.0837 O   0  0  0  0  0  0  0  0  0  0  0  0
   10.6122   38.1915   31.6452 C   0  0  0  0  0  0  0  0  0  0  0  0
   12.9429   37.6852   32.0295 C   0  0  0  0  0  0  0  0  0  0  0  0
    9.6070   38.0858   30.6603 O   0  0  0  0  0  0  0  0  0  0  0  0
   11.5845   37.0185   31.6879 C   0  0  0  0  0  0  0  0  0  0  0  0
   13.4899   37.2163   33.3250 N   0  0  0  0  0  0  0  0  0  0  0  0
   11.6201   36.3062   30.4693 O   0  0  0  0  0  0  0  0  0  0  0  0
   14.4759   36.3263   33.5738 C   0  0  0  0  0  0  0  0  0  0  0  0
   13.1176   37.6307   34.5699 C   0  0  0  0  0  0  0  0  0  0  0  0
   15.2065   35.6139   32.6746 N   0  0  0  0  0  0  0  0  0  0  0  0
   14.6731   36.2267   34.9191 C   0  0  0  0  0  0  0  0  0  0  0  0
   13.8224   37.0450   35.5792 N   0  0  0  0  0  0  0  0  0  0  0  0
   16.1640   34.7596   33.1551 C   0  0  0  0  0  0  0  0  0  0  0  0
   15.6517   35.3489   35.4136 C   0  0  0  0  0  0  0  0  0  0  0  0
   16.3795   34.6310   34.5046 N   0  0  0  0  0  0  0  0  0  0  0  0
   15.9006   35.1931   36.8094 N   0  0  0  0  0  0  0  0  0  0  0  0
    9.7626   45.0055   32.1626 H   0  0  0  0  0  0  0  0  0  0  0  0
   10.8475   46.9548   33.0465 H   0  0  0  0  0  0  0  0  0  0  0  0
   11.8960   45.6757   32.9268 H   0  0  0  0  0  0  0  0  0  0  0  0
    7.8670   44.8939   33.8952 H   0  0  0  0  0  0  0  0  0  0  0  0
    8.8866   45.8553   35.0172 H   0  0  0  0  0  0  0  0  0  0  0  0
    6.9969   49.4281   33.2010 H   0  0  0  0  0  0  0  0  0  0  0  0
    8.5051   49.4444   32.2195 H   0  0  0  0  0  0  0  0  0  0  0  0
   10.5627   50.5624   33.0901 H   0  0  0  0  0  0  0  0  0  0  0  0
    6.8649   50.6925   35.3101 H   0  0  0  0  0  0  0  0  0  0  0  0
   11.4565   52.3896   34.4919 H   0  0  0  0  0  0  0  0  0  0  0  0
    7.7759   52.5187   36.7011 H   0  0  0  0  0  0  0  0  0  0  0  0
   10.0674   53.3730   36.2945 H   0  0  0  0  0  0  0  0  0  0  0  0
    9.8256   40.7190   31.7584 H   0  0  0  0  0  0  0  0  0  0  0  0
   11.3828   41.5525   31.4742 H   0  0  0  0  0  0  0  0  0  0  0  0
   11.7320   39.5336   30.3518 H   0  0  0  0  0  0  0  0  0  0  0  0
   10.1216   38.2683   32.6413 H   0  0  0  0  0  0  0  0  0  0  0  0
   13.6882   37.4706   31.2319 H   0  0  0  0  0  0  0  0  0  0  0  0
   10.0256   38.1750   29.7656 H   0  0  0  0  0  0  0  0  0  0  0  0
   11.2795   36.3123   32.4916 H   0  0  0  0  0  0  0  0  0  0  0  0
   11.9872   36.9098   29.7714 H   0  0  0  0  0  0  0  0  0  0  0  0
   12.3365   38.3595   34.7453 H   0  0  0  0  0  0  0  0  0  0  0  0
   16.7577   34.1794   32.4622 H   0  0  0  0  0  0  0  0  0  0  0  0
   16.6368   34.5316   37.1418 H   0  0  0  0  0  0  0  0  0  0  0  0
   15.3532   35.7351   37.5143 H   0  0  0  0  0  0  0  0  0  0  0  0
  1  2  2  0
  1  3  1  0
  3  4  1  0
  4  5  1  0
  6  1  1  0
  7  6  1  0
  6  8  1  0
  8  9  1  0
  9 10  1  0
  9 11  2  0
 10 12  1  0
 12 13  1  0
 13 14  2  0
 15 13  1  0
 14 16  1  0
 17 15  2  0
 16 18  2  0
 18 17  1  0
  4 19  2  0
  4 20  1  0
 21 20  1  0
 21 22  1  0
 22 23  1  0
 22 24  1  0
 23 25  1  0
 24 26  1  0
 24 27  1  0
 27 25  1  0
 25 28  1  0
 27 29  1  0
 30 28  1  0
 31 28  1  0
 32 30  2  0
 30 33  1  0
 34 31  2  0
 35 32  1  0
 33 36  2  0
 33 34  1  0
 37 35  2  0
 37 36  1  0
 36 38  1  0
  6 39  1  6
  7 40  1  0
  7 41  1  0
  8 42  1  0
  8 43  1  0
 12 44  1  0
 12 45  1  0
 14 46  1  0
 15 47  1  0
 16 48  1  0
 17 49  1  0
 18 50  1  0
 21 51  1  0
 21 52  1  0
 22 53  1  0
 24 54  1  0
 25 55  1  0
 26 56  1  0
 27 57  1  0
 29 58  1  0
 31 59  1  0
 35 60  1  0
 38 61  1  0
 38 62  1  0
M  CHG  1   5  -1
M  END
>  <EmbedRMS>  (320) 
0.08708510460061084

$$$$

     RDKit          3D

 62 65  0  0  0  0  0  0  0  0999 V2000
   10.2807   43.7766   33.8110 C   0  0  0  0  0  0  0  0  0  0  0  0
   11.4073   43.5922   34.3592 O   0  0  0  0  0  0  0  0  0  0  0  0
    9.3662   42.7322   33.7023 O   0  0  0  0  0  0  0  0  0  0  0  0
    9.8859   41.2350   34.2836 P   0  0  0  0  0  5  0  0  0  0  0  0
   10.3665   41.4691   35.8743 O   0  0  0  0  0  1  0  0  0  0  0  0
    9.9493   45.1135   33.2499 C   0  0  2  0  0  0  0  0  0  0  0  0
   11.0777   46.0212   33.4751 N   0  0  0  0  0  0  0  0  0  0  0  0
    8.6445   45.6585   33.8768 C   0  0  0  0  0  0  0  0  0  0  0  0
    8.1640   46.9008   33.1685 C   0  0  0  0  0  0  0  0  0  0  0  0
    7.1825   46.8821   32.1651 O   0  0  0  0  0  0  0  0  0  0  0  0
    8.6868   48.0062   33.4693 O   0  0  0  0  0  0  0  0  0  0  0  0
    6.3457   45.7704   31.8432 C   0  0  0  0  0  0  0  0  0  0  0  0
    7.1096   44.6871   31.1302 C   0  0  0  0  0  0  0  0  0  0  0  0
    7.9392   45.0013   30.0406 C   0  0  0  0  0  0  0  0  0  0  0  0
    6.9527   43.3435   31.5099 C   0  0  0  0  0  0  0  0  0  0  0  0
    8.6334   43.9893   29.3697 C   0  0  0  0  0  0  0  0  0  0  0  0
    7.6387   42.3342   30.8288 C   0  0  0  0  0  0  0  0  0  0  0  0
    8.4857   42.6570   29.7655 C   0  0  0  0  0  0  0  0  0  0  0  0
    8.8083   40.1921   34.2074 O   0  0  0  0  0  0  0  0  0  0  0  0
   11.2381   40.7917   33.3675 O   0  0  0  0  0  0  0  0  0  0  0  0
   10.9154   40.6874   31.9951 C   0  0  0  0  0  0  0  0  0  0  0  0
   11.5267   39.3874   31.4363 C   0  0  0  0  0  0  0  0  0  0  0  0
   12.7496   39.0894   32.0816 O   0  0  0  0  0  0  0  0  0  0  0  0
   10.6126   38.1896   31.6457 C   0  0  0  0  0  0  0  0  0  0  0  0
   12.9375   37.6828   32.0296 C   0  0  0  0  0  0  0  0  0  0  0  0
    9.6151   38.0846   30.6536 O   0  0  0  0  0  0  0  0  0  0  0  0
   11.5793   37.0139   31.7008 C   0  0  0  0  0  0  0  0  0  0  0  0
   13.4903   37.2171   33.3237 N   0  0  0  0  0  0  0  0  0  0  0  0
   11.6214   36.3256   30.4720 O   0  0  0  0  0  0  0  0  0  0  0  0
   14.4760   36.3269   33.5731 C   0  0  0  0  0  0  0  0  0  0  0  0
   13.1173   37.6315   34.5684 C   0  0  0  0  0  0  0  0  0  0  0  0
   15.2065   35.6137   32.6745 N   0  0  0  0  0  0  0  0  0  0  0  0
   14.6726   36.2279   34.9185 C   0  0  0  0  0  0  0  0  0  0  0  0
   13.8215   37.0462   35.5780 N   0  0  0  0  0  0  0  0  0  0  0  0
   16.1637   34.7595   33.1560 C   0  0  0  0  0  0  0  0  0  0  0  0
   15.6515   35.3493   35.4143 C   0  0  0  0  0  0  0  0  0  0  0  0
   16.3787   34.6316   34.5058 N   0  0  0  0  0  0  0  0  0  0  0  0
   15.9063   35.1878   36.8087 N   0  0  0  0  0  0  0  0  0  0  0  0
    9.8086   44.9823   32.1559 H   0  0  0  0  0  0  0  0  0  0  0  0
   10.9663   46.8631   32.8656 H   0  0  0  0  0  0  0  0  0  0  0  0
   11.0863   46.3445   34.4705 H   0  0  0  0  0  0  0  0  0  0  0  0
    8.8126   45.8954   34.9503 H   0  0  0  0  0  0  0  0  0  0  0  0
    7.8557   44.8806   33.8565 H   0  0  0  0  0  0  0  0  0  0  0  0
    5.8531   45.3928   32.7655 H   0  0  0  0  0  0  0  0  0  0  0  0
    5.5397   46.1247   31.1672 H   0  0  0  0  0  0  0  0  0  0  0  0
    8.0560   46.0287   29.7190 H   0  0  0  0  0  0  0  0  0  0  0  0
    6.3024   43.0765   32.3335 H   0  0  0  0  0  0  0  0  0  0  0  0
    9.2826   44.2375   28.5401 H   0  0  0  0  0  0  0  0  0  0  0  0
    7.5132   41.3014   31.1269 H   0  0  0  0  0  0  0  0  0  0  0  0
    9.0223   41.8743   29.2449 H   0  0  0  0  0  0  0  0  0  0  0  0
    9.8265   40.7074   31.7629 H   0  0  0  0  0  0  0  0  0  0  0  0
   11.3752   41.5518   31.4699 H   0  0  0  0  0  0  0  0  0  0  0  0
   11.7295   39.5297   30.3503 H   0  0  0  0  0  0  0  0  0  0  0  0
   10.1143   38.2720   32.6376 H   0  0  0  0  0  0  0  0  0  0  0  0
   13.6727   37.4636   31.2236 H   0  0  0  0  0  0  0  0  0  0  0  0
   10.0531   38.1121   29.7635 H   0  0  0  0  0  0  0  0  0  0  0  0
   11.2645   36.3137   32.5101 H   0  0  0  0  0  0  0  0  0  0  0  0
   12.1548   35.5035   30.6309 H   0  0  0  0  0  0  0  0  0  0  0  0
   12.3352   38.3593   34.7435 H   0  0  0  0  0  0  0  0  0  0  0  0
   16.7575   34.1788   32.4637 H   0  0  0  0  0  0  0  0  0  0  0  0
   15.3672   35.7230   37.5250 H   0  0  0  0  0  0  0  0  0  0  0  0
   15.3671   35.7230   37.5250 H   0  0  0  0  0  0  0  0  0  0  0  0
  1  2  2  0
  1  3  1  0
  3  4  1  0
  4  5  1  0
  6  1  1  0
  7  6  1  0
  6  8  1  0
  8  9  1  0
  9 10  1  0
  9 11  2  0
 10 12  1  0
 12 13  1  0
 13 14  2  0
 15 13  1  0
 14 16  1  0
 17 15  2  0
 16 18  2  0
 18 17  1  0
  4 19  2  0
  4 20  1  0
 21 20  1  0
 21 22  1  0
 22 23  1  0
 22 24  1  0
 23 25  1  0
 24 26  1  0
 24 27  1  0
 27 25  1  0
 25 28  1  0
 27 29  1  0
 30 28  1  0
 31 28  1  0
 32 30  2  0
 30 33  1  0
 34 31  2  0
 35 32  1  0
 33 36  2  0
 33 34  1  0
 37 35  2  0
 37 36  1  0
 36 38  1  0
  6 39  1  6
  7 40  1  0
  7 41  1  0
  8 42  1  0
  8 43  1  0
 12 44  1  0
 12 45  1  0
 14 46  1  0
 15 47  1  0
 16 48  1  0
 17 49  1  0
 18 50  1  0
 21 51  1  0
 21 52  1  0
 22 53  1  0
 24 54  1  0
 25 55  1  0
 26 56  1  0
 27 57  1  0
 29 58  1  0
 31 59  1  0
 35 60  1  0
 38 61  1  0
 38 62  1  0
M  CHG  1   5  -1
M  END
>  <EmbedRMS>  (321) 
0.08750327117391822

$$$$

     RDKit          3D

 62 65  0  0  0  0  0  0  0  0999 V2000
   10.2828   43.7757   33.8086 C   0  0  0  0  0  0  0  0  0  0  0  0
   11.4085   43.5916   34.3585 O   0  0  0  0  0  0  0  0  0  0  0  0
    9.3669   42.7319   33.7013 O   0  0  0  0  0  0  0  0  0  0  0  0
    9.8860   41.2347   34.2841 P   0  0  0  0  0  5  0  0  0  0  0  0
   10.3669   41.4695   35.8745 O   0  0  0  0  0  1  0  0  0  0  0  0
    9.9537   45.1113   33.2427 C   0  0  2  0  0  0  0  0  0  0  0  0
   11.0723   46.0265   33.4843 N   0  0  0  0  0  0  0  0  0  0  0  0
    8.6381   45.6455   33.8516 C   0  0  0  0  0  0  0  0  0  0  0  0
    8.1819   46.9087   33.1684 C   0  0  0  0  0  0  0  0  0  0  0  0
    7.4041   46.8973   32.0029 O   0  0  0  0  0  0  0  0  0  0  0  0
    8.5434   48.0190   33.6398 O   0  0  0  0  0  0  0  0  0  0  0  0
    6.8547   45.7214   31.4155 C   0  0  0  0  0  0  0  0  0  0  0  0
    6.1356   46.0924   30.1520 C   0  0  0  0  0  0  0  0  0  0  0  0
    6.8300   46.1436   28.9320 C   0  0  0  0  0  0  0  0  0  0  0  0
    4.7793   46.4561   30.1889 C   0  0  0  0  0  0  0  0  0  0  0  0
    6.1677   46.5251   27.7608 C   0  0  0  0  0  0  0  0  0  0  0  0
    4.1208   46.8371   29.0154 C   0  0  0  0  0  0  0  0  0  0  0  0
    4.8136   46.8692   27.8019 C   0  0  0  0  0  0  0  0  0  0  0  0
    8.8084   40.1917   34.2085 O   0  0  0  0  0  0  0  0  0  0  0  0
   11.2374   40.7909   33.3675 O   0  0  0  0  0  0  0  0  0  0  0  0
   10.9151   40.6884   31.9947 C   0  0  0  0  0  0  0  0  0  0  0  0
   11.5259   39.3871   31.4365 C   0  0  0  0  0  0  0  0  0  0  0  0
   12.7490   39.0894   32.0820 O   0  0  0  0  0  0  0  0  0  0  0  0
   10.6122   38.1893   31.6461 C   0  0  0  0  0  0  0  0  0  0  0  0
   12.9373   37.6828   32.0301 C   0  0  0  0  0  0  0  0  0  0  0  0
    9.6150   38.0839   30.6538 O   0  0  0  0  0  0  0  0  0  0  0  0
   11.5793   37.0137   31.7014 C   0  0  0  0  0  0  0  0  0  0  0  0
   13.4906   37.2170   33.3242 N   0  0  0  0  0  0  0  0  0  0  0  0
   11.6216   36.3253   30.4725 O   0  0  0  0  0  0  0  0  0  0  0  0
   14.4763   36.3267   33.5731 C   0  0  0  0  0  0  0  0  0  0  0  0
   13.1181   37.6308   34.5694 C   0  0  0  0  0  0  0  0  0  0  0  0
   15.2065   35.6137   32.6740 N   0  0  0  0  0  0  0  0  0  0  0  0
   14.6735   36.2270   34.9185 C   0  0  0  0  0  0  0  0  0  0  0  0
   13.8229   37.0451   35.5787 N   0  0  0  0  0  0  0  0  0  0  0  0
   16.1639   34.7593   33.1547 C   0  0  0  0  0  0  0  0  0  0  0  0
   15.6519   35.3489   35.4132 C   0  0  0  0  0  0  0  0  0  0  0  0
   16.3794   34.6308   34.5042 N   0  0  0  0  0  0  0  0  0  0  0  0
   15.9006   35.1931   36.8090 N   0  0  0  0  0  0  0  0  0  0  0  0
    9.8298   44.9813   32.1456 H   0  0  0  0  0  0  0  0  0  0  0  0
   11.0789   46.3242   34.4877 H   0  0  0  0  0  0  0  0  0  0  0  0
   10.9419   46.8843   32.9008 H   0  0  0  0  0  0  0  0  0  0  0  0
    8.7781   45.8436   34.9373 H   0  0  0  0  0  0  0  0  0  0  0  0
    7.8398   44.8782   33.7745 H   0  0  0  0  0  0  0  0  0  0  0  0
    7.6618   44.9933   31.1870 H   0  0  0  0  0  0  0  0  0  0  0  0
    6.1471   45.2422   32.1266 H   0  0  0  0  0  0  0  0  0  0  0  0
    7.8818   45.8888   28.8882 H   0  0  0  0  0  0  0  0  0  0  0  0
    4.2334   46.4450   31.1242 H   0  0  0  0  0  0  0  0  0  0  0  0
    6.7053   46.5577   26.8219 H   0  0  0  0  0  0  0  0  0  0  0  0
    3.0742   47.1112   29.0474 H   0  0  0  0  0  0  0  0  0  0  0  0
    4.3029   47.1656   26.8949 H   0  0  0  0  0  0  0  0  0  0  0  0
   11.3818   41.5505   31.4719 H   0  0  0  0  0  0  0  0  0  0  0  0
    9.8248   40.7179   31.7583 H   0  0  0  0  0  0  0  0  0  0  0  0
   11.7290   39.5287   30.3504 H   0  0  0  0  0  0  0  0  0  0  0  0
   10.1139   38.2719   32.6379 H   0  0  0  0  0  0  0  0  0  0  0  0
   13.6725   37.4638   31.2240 H   0  0  0  0  0  0  0  0  0  0  0  0
   10.0535   38.1086   29.7638 H   0  0  0  0  0  0  0  0  0  0  0  0
   11.2646   36.3135   32.5107 H   0  0  0  0  0  0  0  0  0  0  0  0
   12.1550   35.5033   30.6316 H   0  0  0  0  0  0  0  0  0  0  0  0
   12.3362   38.3586   34.7450 H   0  0  0  0  0  0  0  0  0  0  0  0
   16.7573   34.1788   32.4619 H   0  0  0  0  0  0  0  0  0  0  0  0
   16.6366   34.5314   37.1415 H   0  0  0  0  0  0  0  0  0  0  0  0
   15.3533   35.7353   37.5139 H   0  0  0  0  0  0  0  0  0  0  0  0
  1  2  2  0
  1  3  1  0
  3  4  1  0
  4  5  1  0
  6  1  1  0
  7  6  1  0
  6  8  1  0
  8  9  1  0
  9 10  1  0
  9 11  2  0
 10 12  1  0
 12 13  1  0
 13 14  2  0
 15 13  1  0
 14 16  1  0
 17 15  2  0
 16 18  2  0
 18 17  1  0
  4 19  2  0
  4 20  1  0
 21 20  1  0
 21 22  1  0
 22 23  1  0
 22 24  1  0
 23 25  1  0
 24 26  1  0
 24 27  1  0
 27 25  1  0
 25 28  1  0
 27 29  1  0
 30 28  1  0
 31 28  1  0
 32 30  2  0
 30 33  1  0
 34 31  2  0
 35 32  1  0
 33 36  2  0
 33 34  1  0
 37 35  2  0
 37 36  1  0
 36 38  1  0
  6 39  1  6
  7 40  1  0
  7 41  1  0
  8 42  1  0
  8 43  1  0
 12 44  1  0
 12 45  1  0
 14 46  1  0
 15 47  1  0
 16 48  1  0
 17 49  1  0
 18 50  1  0
 21 51  1  0
 21 52  1  0
 22 53  1  0
 24 54  1  0
 25 55  1  0
 26 56  1  0
 27 57  1  0
 29 58  1  0
 31 59  1  0
 35 60  1  0
 38 61  1  0
 38 62  1  0
M  CHG  1   5  -1
M  END
>  <EmbedRMS>  (322) 
0.08762137507808478

$$$$

     RDKit          3D

 62 65  0  0  0  0  0  0  0  0999 V2000
   10.2862   43.7710   33.8098 C   0  0  0  0  0  0  0  0  0  0  0  0
   11.4100   43.5818   34.3616 O   0  0  0  0  0  0  0  0  0  0  0  0
    9.3669   42.7308   33.7020 O   0  0  0  0  0  0  0  0  0  0  0  0
    9.8847   41.2330   34.2845 P   0  0  0  0  0  5  0  0  0  0  0  0
   10.3648   41.4677   35.8752 O   0  0  0  0  0  1  0  0  0  0  0  0
    9.9606   45.1125   33.2475 C   0  0  2  0  0  0  0  0  0  0  0  0
   11.0656   46.0479   33.4747 N   0  0  0  0  0  0  0  0  0  0  0  0
    8.6648   45.6567   33.8721 C   0  0  0  0  0  0  0  0  0  0  0  0
    8.2799   46.9668   33.2581 C   0  0  0  0  0  0  0  0  0  0  0  0
    8.7625   48.1540   33.8153 O   0  0  0  0  0  0  0  0  0  0  0  0
    7.5613   46.9870   32.2215 O   0  0  0  0  0  0  0  0  0  0  0  0
    8.4781   49.4338   33.2622 C   0  0  0  0  0  0  0  0  0  0  0  0
    9.1660   50.4877   34.0789 C   0  0  0  0  0  0  0  0  0  0  0  0
   10.5034   50.8254   33.8137 C   0  0  0  0  0  0  0  0  0  0  0  0
    8.5027   51.0949   35.1581 C   0  0  0  0  0  0  0  0  0  0  0  0
   11.1575   51.7795   34.5997 C   0  0  0  0  0  0  0  0  0  0  0  0
    9.1604   52.0487   35.9416 C   0  0  0  0  0  0  0  0  0  0  0  0
   10.4858   52.3925   35.6611 C   0  0  0  0  0  0  0  0  0  0  0  0
    8.8073   40.1902   34.2076 O   0  0  0  0  0  0  0  0  0  0  0  0
   11.2377   40.7903   33.3696 O   0  0  0  0  0  0  0  0  0  0  0  0
   10.9187   40.6904   31.9961 C   0  0  0  0  0  0  0  0  0  0  0  0
   11.5175   39.3823   31.4411 C   0  0  0  0  0  0  0  0  0  0  0  0
   12.7494   39.0893   32.0756 O   0  0  0  0  0  0  0  0  0  0  0  0
   10.6036   38.1899   31.6659 C   0  0  0  0  0  0  0  0  0  0  0  0
   12.9401   37.6834   32.0276 C   0  0  0  0  0  0  0  0  0  0  0  0
    9.6376   38.0784   30.6474 O   0  0  0  0  0  0  0  0  0  0  0  0
   11.5804   37.0203   31.6937 C   0  0  0  0  0  0  0  0  0  0  0  0
   13.4902   37.2177   33.3237 N   0  0  0  0  0  0  0  0  0  0  0  0
   11.6118   36.3193   30.4680 O   0  0  0  0  0  0  0  0  0  0  0  0
   14.4759   36.3271   33.5731 C   0  0  0  0  0  0  0  0  0  0  0  0
   13.1176   37.6317   34.5688 C   0  0  0  0  0  0  0  0  0  0  0  0
   15.2064   35.6141   32.6742 N   0  0  0  0  0  0  0  0  0  0  0  0
   14.6729   36.2274   34.9184 C   0  0  0  0  0  0  0  0  0  0  0  0
   13.8221   37.0457   35.5783 N   0  0  0  0  0  0  0  0  0  0  0  0
   16.1637   34.7597   33.1549 C   0  0  0  0  0  0  0  0  0  0  0  0
   15.6514   35.3493   35.4133 C   0  0  0  0  0  0  0  0  0  0  0  0
   16.3791   34.6312   34.5044 N   0  0  0  0  0  0  0  0  0  0  0  0
   15.9001   35.1935   36.8091 N   0  0  0  0  0  0  0  0  0  0  0  0
    9.8091   44.9958   32.1513 H   0  0  0  0  0  0  0  0  0  0  0  0
   11.2748   46.1196   34.4981 H   0  0  0  0  0  0  0  0  0  0  0  0
   11.9222   45.7017   32.9833 H   0  0  0  0  0  0  0  0  0  0  0  0
    8.7969   45.7913   34.9681 H   0  0  0  0  0  0  0  0  0  0  0  0
    7.8351   44.9321   33.7176 H   0  0  0  0  0  0  0  0  0  0  0  0
    7.3792   49.6047   33.2581 H   0  0  0  0  0  0  0  0  0  0  0  0
    8.8362   49.4757   32.2100 H   0  0  0  0  0  0  0  0  0  0  0  0
   11.0381   50.3498   33.0007 H   0  0  0  0  0  0  0  0  0  0  0  0
    7.4791   50.8301   35.3926 H   0  0  0  0  0  0  0  0  0  0  0  0
   12.1864   52.0406   34.3883 H   0  0  0  0  0  0  0  0  0  0  0  0
    8.6438   52.5182   36.7687 H   0  0  0  0  0  0  0  0  0  0  0  0
   10.9939   53.1296   36.2693 H   0  0  0  0  0  0  0  0  0  0  0  0
    9.8308   40.7397   31.7558 H   0  0  0  0  0  0  0  0  0  0  0  0
   11.3998   41.5454   31.4747 H   0  0  0  0  0  0  0  0  0  0  0  0
   11.6989   39.5091   30.3489 H   0  0  0  0  0  0  0  0  0  0  0  0
   10.1130   38.2588   32.6663 H   0  0  0  0  0  0  0  0  0  0  0  0
   13.6800   37.4628   31.2265 H   0  0  0  0  0  0  0  0  0  0  0  0
    8.8952   38.6907   30.8891 H   0  0  0  0  0  0  0  0  0  0  0  0
   11.2830   36.3060   32.4929 H   0  0  0  0  0  0  0  0  0  0  0  0
   11.8859   36.9589   29.7593 H   0  0  0  0  0  0  0  0  0  0  0  0
   12.3360   38.3600   34.7441 H   0  0  0  0  0  0  0  0  0  0  0  0
   16.7572   34.1792   32.4621 H   0  0  0  0  0  0  0  0  0  0  0  0
   16.6362   34.5318   37.1416 H   0  0  0  0  0  0  0  0  0  0  0  0
   15.3528   35.7356   37.5140 H   0  0  0  0  0  0  0  0  0  0  0  0
  1  2  2  0
  1  3  1  0
  3  4  1  0
  4  5  1  0
  6  1  1  0
  7  6  1  0
  6  8  1  0
  8  9  1  0
  9 10  1  0
  9 11  2  0
 10 12  1  0
 12 13  1  0
 13 14  2  0
 15 13  1  0
 14 16  1  0
 17 15  2  0
 16 18  2  0
 18 17  1  0
  4 19  2  0
  4 20  1  0
 21 20  1  0
 21 22  1  0
 22 23  1  0
 22 24  1  0
 23 25  1  0
 24 26  1  0
 24 27  1  0
 27 25  1  0
 25 28  1  0
 27 29  1  0
 30 28  1  0
 31 28  1  0
 32 30  2  0
 30 33  1  0
 34 31  2  0
 35 32  1  0
 33 36  2  0
 33 34  1  0
 37 35  2  0
 37 36  1  0
 36 38  1  0
  6 39  1  6
  7 40  1  0
  7 41  1  0
  8 42  1  0
  8 43  1  0
 12 44  1  0
 12 45  1  0
 14 46  1  0
 15 47  1  0
 16 48  1  0
 17 49  1  0
 18 50  1  0
 21 51  1  0
 21 52  1  0
 22 53  1  0
 24 54  1  0
 25 55  1  0
 26 56  1  0
 27 57  1  0
 29 58  1  0
 31 59  1  0
 35 60  1  0
 38 61  1  0
 38 62  1  0
M  CHG  1   5  -1
M  END
>  <EmbedRMS>  (323) 
0.088840100926996

$$$$

     RDKit          3D

 62 65  0  0  0  0  0  0  0  0999 V2000
   10.2867   43.7708   33.8016 C   0  0  0  0  0  0  0  0  0  0  0  0
   11.4091   43.5869   34.3580 O   0  0  0  0  0  0  0  0  0  0  0  0
    9.3675   42.7304   33.6981 O   0  0  0  0  0  0  0  0  0  0  0  0
    9.8858   41.2341   34.2838 P   0  0  0  0  0  5  0  0  0  0  0  0
   10.3654   41.4706   35.8743 O   0  0  0  0  0  1  0  0  0  0  0  0
    9.9515   45.1162   33.2557 C   0  0  2  0  0  0  0  0  0  0  0  0
   11.0719   46.0322   33.4787 N   0  0  0  0  0  0  0  0  0  0  0  0
    8.6616   45.6673   33.9002 C   0  0  0  0  0  0  0  0  0  0  0  0
    8.7705   45.7517   35.3936 C   0  0  0  0  0  0  0  0  0  0  0  0
    9.5772   46.7379   35.9707 O   0  0  0  0  0  0  0  0  0  0  0  0
    8.1801   44.9004   36.1132 O   0  0  0  0  0  0  0  0  0  0  0  0
    9.9967   46.6984   37.3321 C   0  0  0  0  0  0  0  0  0  0  0  0
   10.9865   45.5825   37.5304 C   0  0  0  0  0  0  0  0  0  0  0  0
   10.6268   44.4222   38.2360 C   0  0  0  0  0  0  0  0  0  0  0  0
   12.2626   45.6682   36.9505 C   0  0  0  0  0  0  0  0  0  0  0  0
   11.5371   43.3690   38.3686 C   0  0  0  0  0  0  0  0  0  0  0  0
   13.1696   44.6124   37.0845 C   0  0  0  0  0  0  0  0  0  0  0  0
   12.8070   43.4635   37.7928 C   0  0  0  0  0  0  0  0  0  0  0  0
    8.8084   40.1911   34.2082 O   0  0  0  0  0  0  0  0  0  0  0  0
   11.2386   40.7897   33.3691 O   0  0  0  0  0  0  0  0  0  0  0  0
   10.9198   40.6895   31.9952 C   0  0  0  0  0  0  0  0  0  0  0  0
   11.5172   39.3802   31.4398 C   0  0  0  0  0  0  0  0  0  0  0  0
   12.7480   39.0861   32.0733 O   0  0  0  0  0  0  0  0  0  0  0  0
   10.6032   38.1892   31.6667 C   0  0  0  0  0  0  0  0  0  0  0  0
   12.9336   37.6796   32.0280 C   0  0  0  0  0  0  0  0  0  0  0  0
    9.6397   38.0778   30.6457 O   0  0  0  0  0  0  0  0  0  0  0  0
   11.5739   37.0154   31.7058 C   0  0  0  0  0  0  0  0  0  0  0  0
   13.4903   37.2178   33.3231 N   0  0  0  0  0  0  0  0  0  0  0  0
   11.6211   36.3377   30.4695 O   0  0  0  0  0  0  0  0  0  0  0  0
   14.4761   36.3273   33.5725 C   0  0  0  0  0  0  0  0  0  0  0  0
   13.1179   37.6318   34.5684 C   0  0  0  0  0  0  0  0  0  0  0  0
   15.2063   35.6139   32.6738 N   0  0  0  0  0  0  0  0  0  0  0  0
   14.6733   36.2278   34.9180 C   0  0  0  0  0  0  0  0  0  0  0  0
   13.8226   37.0460   35.5780 N   0  0  0  0  0  0  0  0  0  0  0  0
   16.1636   34.7595   33.1546 C   0  0  0  0  0  0  0  0  0  0  0  0
   15.6515   35.3494   35.4129 C   0  0  0  0  0  0  0  0  0  0  0  0
   16.3791   34.6311   34.5041 N   0  0  0  0  0  0  0  0  0  0  0  0
   15.9001   35.1936   36.8088 N   0  0  0  0  0  0  0  0  0  0  0  0
    9.7779   45.0127   32.1610 H   0  0  0  0  0  0  0  0  0  0  0  0
   11.8839   45.7086   32.9029 H   0  0  0  0  0  0  0  0  0  0  0  0
   10.8144   46.9709   33.0955 H   0  0  0  0  0  0  0  0  0  0  0  0
    7.8021   45.0175   33.6239 H   0  0  0  0  0  0  0  0  0  0  0  0
    8.4451   46.6799   33.4973 H   0  0  0  0  0  0  0  0  0  0  0  0
    9.1146   46.5882   38.0004 H   0  0  0  0  0  0  0  0  0  0  0  0
   10.4837   47.6643   37.5830 H   0  0  0  0  0  0  0  0  0  0  0  0
    9.6418   44.3290   38.6761 H   0  0  0  0  0  0  0  0  0  0  0  0
   12.5495   46.5477   36.3872 H   0  0  0  0  0  0  0  0  0  0  0  0
   11.2554   42.4762   38.9117 H   0  0  0  0  0  0  0  0  0  0  0  0
   14.1509   44.6822   36.6335 H   0  0  0  0  0  0  0  0  0  0  0  0
   13.5084   42.6452   37.8921 H   0  0  0  0  0  0  0  0  0  0  0  0
   11.4018   41.5438   31.4736 H   0  0  0  0  0  0  0  0  0  0  0  0
    9.8320   40.7400   31.7549 H   0  0  0  0  0  0  0  0  0  0  0  0
   11.6983   39.5045   30.3472 H   0  0  0  0  0  0  0  0  0  0  0  0
   10.1090   38.2632   32.6650 H   0  0  0  0  0  0  0  0  0  0  0  0
   13.6656   37.4540   31.2208 H   0  0  0  0  0  0  0  0  0  0  0  0
    8.8967   38.6903   30.8851 H   0  0  0  0  0  0  0  0  0  0  0  0
   11.2846   36.3061   32.5176 H   0  0  0  0  0  0  0  0  0  0  0  0
   10.8523   35.7095   30.4590 H   0  0  0  0  0  0  0  0  0  0  0  0
   12.3355   38.3591   34.7440 H   0  0  0  0  0  0  0  0  0  0  0  0
   16.7569   34.1788   32.4619 H   0  0  0  0  0  0  0  0  0  0  0  0
   15.3529   35.7360   37.5136 H   0  0  0  0  0  0  0  0  0  0  0  0
   16.6360   34.5317   37.1414 H   0  0  0  0  0  0  0  0  0  0  0  0
  1  2  2  0
  1  3  1  0
  3  4  1  0
  4  5  1  0
  6  1  1  0
  7  6  1  0
  6  8  1  0
  8  9  1  0
  9 10  1  0
  9 11  2  0
 10 12  1  0
 12 13  1  0
 13 14  2  0
 15 13  1  0
 14 16  1  0
 17 15  2  0
 16 18  2  0
 18 17  1  0
  4 19  2  0
  4 20  1  0
 21 20  1  0
 21 22  1  0
 22 23  1  0
 22 24  1  0
 23 25  1  0
 24 26  1  0
 24 27  1  0
 27 25  1  0
 25 28  1  0
 27 29  1  0
 30 28  1  0
 31 28  1  0
 32 30  2  0
 30 33  1  0
 34 31  2  0
 35 32  1  0
 33 36  2  0
 33 34  1  0
 37 35  2  0
 37 36  1  0
 36 38  1  0
  6 39  1  6
  7 40  1  0
  7 41  1  0
  8 42  1  0
  8 43  1  0
 12 44  1  0
 12 45  1  0
 14 46  1  0
 15 47  1  0
 16 48  1  0
 17 49  1  0
 18 50  1  0
 21 51  1  0
 21 52  1  0
 22 53  1  0
 24 54  1  0
 25 55  1  0
 26 56  1  0
 27 57  1  0
 29 58  1  0
 31 59  1  0
 35 60  1  0
 38 61  1  0
 38 62  1  0
M  CHG  1   5  -1
M  END
>  <EmbedRMS>  (324) 
0.08935983690008799

$$$$

     RDKit          3D

 62 65  0  0  0  0  0  0  0  0999 V2000
   10.2830   43.7753   33.8077 C   0  0  0  0  0  0  0  0  0  0  0  0
   11.4086   43.5914   34.3579 O   0  0  0  0  0  0  0  0  0  0  0  0
    9.3669   42.7317   33.7013 O   0  0  0  0  0  0  0  0  0  0  0  0
    9.8865   41.2344   34.2838 P   0  0  0  0  0  5  0  0  0  0  0  0
   10.3666   41.4694   35.8745 O   0  0  0  0  0  1  0  0  0  0  0  0
    9.9539   45.1111   33.2429 C   0  0  2  0  0  0  0  0  0  0  0  0
   11.0722   46.0271   33.4848 N   0  0  0  0  0  0  0  0  0  0  0  0
    8.6387   45.6432   33.8511 C   0  0  0  0  0  0  0  0  0  0  0  0
    8.2422   46.9437   33.2264 C   0  0  0  0  0  0  0  0  0  0  0  0
    7.7886   46.9579   31.9032 O   0  0  0  0  0  0  0  0  0  0  0  0
    8.3605   48.0162   33.8798 O   0  0  0  0  0  0  0  0  0  0  0  0
    7.6040   48.1576   31.1561 C   0  0  0  0  0  0  0  0  0  0  0  0
    8.9369   48.7804   30.8409 C   0  0  0  0  0  0  0  0  0  0  0  0
    9.8488   48.1013   30.0166 C   0  0  0  0  0  0  0  0  0  0  0  0
    9.2990   50.0194   31.3954 C   0  0  0  0  0  0  0  0  0  0  0  0
   11.1029   48.6573   29.7461 C   0  0  0  0  0  0  0  0  0  0  0  0
   10.5539   50.5725   31.1214 C   0  0  0  0  0  0  0  0  0  0  0  0
   11.4550   49.8923   30.2975 C   0  0  0  0  0  0  0  0  0  0  0  0
    8.8091   40.1913   34.2077 O   0  0  0  0  0  0  0  0  0  0  0  0
   11.2390   40.7910   33.3682 O   0  0  0  0  0  0  0  0  0  0  0  0
   10.9194   40.6896   31.9946 C   0  0  0  0  0  0  0  0  0  0  0  0
   11.5171   39.3801   31.4397 C   0  0  0  0  0  0  0  0  0  0  0  0
   12.7478   39.0862   32.0734 O   0  0  0  0  0  0  0  0  0  0  0  0
   10.6031   38.1892   31.6666 C   0  0  0  0  0  0  0  0  0  0  0  0
   12.9335   37.6797   32.0280 C   0  0  0  0  0  0  0  0  0  0  0  0
    9.6397   38.0777   30.6456 O   0  0  0  0  0  0  0  0  0  0  0  0
   11.5739   37.0154   31.7057 C   0  0  0  0  0  0  0  0  0  0  0  0
   13.4903   37.2178   33.3231 N   0  0  0  0  0  0  0  0  0  0  0  0
   11.6211   36.3376   30.4695 O   0  0  0  0  0  0  0  0  0  0  0  0
   14.4761   36.3273   33.5725 C   0  0  0  0  0  0  0  0  0  0  0  0
   13.1179   37.6317   34.5684 C   0  0  0  0  0  0  0  0  0  0  0  0
   15.2063   35.6139   32.6737 N   0  0  0  0  0  0  0  0  0  0  0  0
   14.6733   36.2277   34.9179 C   0  0  0  0  0  0  0  0  0  0  0  0
   13.8225   37.0459   35.5779 N   0  0  0  0  0  0  0  0  0  0  0  0
   16.1636   34.7594   33.1546 C   0  0  0  0  0  0  0  0  0  0  0  0
   15.6515   35.3494   35.4129 C   0  0  0  0  0  0  0  0  0  0  0  0
   16.3791   34.6311   34.5041 N   0  0  0  0  0  0  0  0  0  0  0  0
   15.9001   35.1935   36.8088 N   0  0  0  0  0  0  0  0  0  0  0  0
    9.8235   44.9841   32.1448 H   0  0  0  0  0  0  0  0  0  0  0  0
   10.9452   46.8826   32.8965 H   0  0  0  0  0  0  0  0  0  0  0  0
   11.0720   46.3302   34.4867 H   0  0  0  0  0  0  0  0  0  0  0  0
    7.8195   44.9135   33.6718 H   0  0  0  0  0  0  0  0  0  0  0  0
    8.7461   45.7667   34.9517 H   0  0  0  0  0  0  0  0  0  0  0  0
    7.0892   47.9086   30.2044 H   0  0  0  0  0  0  0  0  0  0  0  0
    6.9455   48.8563   31.7175 H   0  0  0  0  0  0  0  0  0  0  0  0
    9.5900   47.1397   29.5906 H   0  0  0  0  0  0  0  0  0  0  0  0
    8.6147   50.5540   32.0423 H   0  0  0  0  0  0  0  0  0  0  0  0
   11.8028   48.1294   29.1113 H   0  0  0  0  0  0  0  0  0  0  0  0
   10.8291   51.5272   31.5507 H   0  0  0  0  0  0  0  0  0  0  0  0
   12.4265   50.3211   30.0881 H   0  0  0  0  0  0  0  0  0  0  0  0
    9.8315   40.7397   31.7549 H   0  0  0  0  0  0  0  0  0  0  0  0
   11.4008   41.5438   31.4721 H   0  0  0  0  0  0  0  0  0  0  0  0
   11.6983   39.5042   30.3470 H   0  0  0  0  0  0  0  0  0  0  0  0
   10.1090   38.2633   32.6649 H   0  0  0  0  0  0  0  0  0  0  0  0
   13.6656   37.4541   31.2207 H   0  0  0  0  0  0  0  0  0  0  0  0
    8.8965   38.6900   30.8851 H   0  0  0  0  0  0  0  0  0  0  0  0
   11.2845   36.3060   32.5175 H   0  0  0  0  0  0  0  0  0  0  0  0
   10.8523   35.7095   30.4590 H   0  0  0  0  0  0  0  0  0  0  0  0
   12.3353   38.3588   34.7439 H   0  0  0  0  0  0  0  0  0  0  0  0
   16.7570   34.1788   32.4619 H   0  0  0  0  0  0  0  0  0  0  0  0
   15.3529   35.7359   37.5136 H   0  0  0  0  0  0  0  0  0  0  0  0
   16.6360   34.5317   37.1413 H   0  0  0  0  0  0  0  0  0  0  0  0
  1  2  2  0
  1  3  1  0
  3  4  1  0
  4  5  1  0
  6  1  1  0
  7  6  1  0
  6  8  1  0
  8  9  1  0
  9 10  1  0
  9 11  2  0
 10 12  1  0
 12 13  1  0
 13 14  2  0
 15 13  1  0
 14 16  1  0
 17 15  2  0
 16 18  2  0
 18 17  1  0
  4 19  2  0
  4 20  1  0
 21 20  1  0
 21 22  1  0
 22 23  1  0
 22 24  1  0
 23 25  1  0
 24 26  1  0
 24 27  1  0
 27 25  1  0
 25 28  1  0
 27 29  1  0
 30 28  1  0
 31 28  1  0
 32 30  2  0
 30 33  1  0
 34 31  2  0
 35 32  1  0
 33 36  2  0
 33 34  1  0
 37 35  2  0
 37 36  1  0
 36 38  1  0
  6 39  1  6
  7 40  1  0
  7 41  1  0
  8 42  1  0
  8 43  1  0
 12 44  1  0
 12 45  1  0
 14 46  1  0
 15 47  1  0
 16 48  1  0
 17 49  1  0
 18 50  1  0
 21 51  1  0
 21 52  1  0
 22 53  1  0
 24 54  1  0
 25 55  1  0
 26 56  1  0
 27 57  1  0
 29 58  1  0
 31 59  1  0
 35 60  1  0
 38 61  1  0
 38 62  1  0
M  CHG  1   5  -1
M  END
>  <EmbedRMS>  (325) 
0.08915089374095972

$$$$

     RDKit          3D

 62 65  0  0  0  0  0  0  0  0999 V2000
   10.2799   43.7746   33.8045 C   0  0  0  0  0  0  0  0  0  0  0  0
   11.4044   43.5901   34.3576 O   0  0  0  0  0  0  0  0  0  0  0  0
    9.3635   42.7310   33.7007 O   0  0  0  0  0  0  0  0  0  0  0  0
    9.8862   41.2351   34.2855 P   0  0  0  0  0  5  0  0  0  0  0  0
   10.3686   41.4726   35.8749 O   0  0  0  0  0  1  0  0  0  0  0  0
    9.9652   45.1093   33.2219 C   0  0  2  0  0  0  0  0  0  0  0  0
   11.0684   46.0292   33.5042 N   0  0  0  0  0  0  0  0  0  0  0  0
    8.6301   45.6686   33.7647 C   0  0  0  0  0  0  0  0  0  0  0  0
    7.4564   45.1107   33.0191 C   0  0  0  0  0  0  0  0  0  0  0  0
    6.6790   44.1000   33.5963 O   0  0  0  0  0  0  0  0  0  0  0  0
    7.1846   45.5561   31.8709 O   0  0  0  0  0  0  0  0  0  0  0  0
    5.5922   43.4680   32.9216 C   0  0  0  0  0  0  0  0  0  0  0  0
    6.1055   42.4314   31.9594 C   0  0  0  0  0  0  0  0  0  0  0  0
    6.4106   41.1392   32.4157 C   0  0  0  0  0  0  0  0  0  0  0  0
    6.3286   42.7544   30.6103 C   0  0  0  0  0  0  0  0  0  0  0  0
    6.9232   40.1823   31.5341 C   0  0  0  0  0  0  0  0  0  0  0  0
    6.8464   41.7964   29.7329 C   0  0  0  0  0  0  0  0  0  0  0  0
    7.1436   40.5115   30.1943 C   0  0  0  0  0  0  0  0  0  0  0  0
    8.8145   40.1867   34.2155 O   0  0  0  0  0  0  0  0  0  0  0  0
   11.2375   40.7928   33.3685 O   0  0  0  0  0  0  0  0  0  0  0  0
   10.9147   40.6908   31.9959 C   0  0  0  0  0  0  0  0  0  0  0  0
   11.5259   39.3905   31.4375 C   0  0  0  0  0  0  0  0  0  0  0  0
   12.7499   39.0921   32.0840 O   0  0  0  0  0  0  0  0  0  0  0  0
   10.6112   38.1921   31.6450 C   0  0  0  0  0  0  0  0  0  0  0  0
   12.9422   37.6858   32.0296 C   0  0  0  0  0  0  0  0  0  0  0  0
    9.6071   38.0846   30.6595 O   0  0  0  0  0  0  0  0  0  0  0  0
   11.5837   37.0192   31.6883 C   0  0  0  0  0  0  0  0  0  0  0  0
   13.4896   37.2166   33.3249 N   0  0  0  0  0  0  0  0  0  0  0  0
   11.6195   36.3067   30.4697 O   0  0  0  0  0  0  0  0  0  0  0  0
   14.4757   36.3265   33.5737 C   0  0  0  0  0  0  0  0  0  0  0  0
   13.1174   37.6309   34.5699 C   0  0  0  0  0  0  0  0  0  0  0  0
   15.2063   35.6140   32.6745 N   0  0  0  0  0  0  0  0  0  0  0  0
   14.6730   36.2268   34.9190 C   0  0  0  0  0  0  0  0  0  0  0  0
   13.8223   37.0451   35.5792 N   0  0  0  0  0  0  0  0  0  0  0  0
   16.1638   34.7597   33.1550 C   0  0  0  0  0  0  0  0  0  0  0  0
   15.6516   35.3490   35.4135 C   0  0  0  0  0  0  0  0  0  0  0  0
   16.3794   34.6311   34.5044 N   0  0  0  0  0  0  0  0  0  0  0  0
   15.9005   35.1931   36.8093 N   0  0  0  0  0  0  0  0  0  0  0  0
    9.8989   44.9861   32.1173 H   0  0  0  0  0  0  0  0  0  0  0  0
   10.9254   46.9038   32.9482 H   0  0  0  0  0  0  0  0  0  0  0  0
   11.0485   46.2975   34.5161 H   0  0  0  0  0  0  0  0  0  0  0  0
    8.5277   45.4522   34.8509 H   0  0  0  0  0  0  0  0  0  0  0  0
    8.6097   46.7743   33.6489 H   0  0  0  0  0  0  0  0  0  0  0  0
    4.9653   44.2244   32.4002 H   0  0  0  0  0  0  0  0  0  0  0  0
    4.9429   42.9794   33.6789 H   0  0  0  0  0  0  0  0  0  0  0  0
    6.2515   40.8742   33.4535 H   0  0  0  0  0  0  0  0  0  0  0  0
    6.1004   43.7441   30.2363 H   0  0  0  0  0  0  0  0  0  0  0  0
    7.1568   39.1879   31.8919 H   0  0  0  0  0  0  0  0  0  0  0  0
    7.0173   42.0505   28.6948 H   0  0  0  0  0  0  0  0  0  0  0  0
    7.5447   39.7717   29.5139 H   0  0  0  0  0  0  0  0  0  0  0  0
    9.8251   40.7210   31.7598 H   0  0  0  0  0  0  0  0  0  0  0  0
   11.3806   41.5534   31.4733 H   0  0  0  0  0  0  0  0  0  0  0  0
   11.7309   39.5348   30.3522 H   0  0  0  0  0  0  0  0  0  0  0  0
   10.1191   38.2693   32.6404 H   0  0  0  0  0  0  0  0  0  0  0  0
   13.6872   37.4714   31.2317 H   0  0  0  0  0  0  0  0  0  0  0  0
   10.0244   38.1824   29.7652 H   0  0  0  0  0  0  0  0  0  0  0  0
   11.2786   36.3132   32.4920 H   0  0  0  0  0  0  0  0  0  0  0  0
   11.9843   36.9111   29.7713 H   0  0  0  0  0  0  0  0  0  0  0  0
   12.3363   38.3596   34.7454 H   0  0  0  0  0  0  0  0  0  0  0  0
   16.7575   34.1796   32.4621 H   0  0  0  0  0  0  0  0  0  0  0  0
   16.6367   34.5316   37.1417 H   0  0  0  0  0  0  0  0  0  0  0  0
   15.3531   35.7351   37.5143 H   0  0  0  0  0  0  0  0  0  0  0  0
  1  2  2  0
  1  3  1  0
  3  4  1  0
  4  5  1  0
  6  1  1  0
  7  6  1  0
  6  8  1  0
  8  9  1  0
  9 10  1  0
  9 11  2  0
 10 12  1  0
 12 13  1  0
 13 14  2  0
 15 13  1  0
 14 16  1  0
 17 15  2  0
 16 18  2  0
 18 17  1  0
  4 19  2  0
  4 20  1  0
 21 20  1  0
 21 22  1  0
 22 23  1  0
 22 24  1  0
 23 25  1  0
 24 26  1  0
 24 27  1  0
 27 25  1  0
 25 28  1  0
 27 29  1  0
 30 28  1  0
 31 28  1  0
 32 30  2  0
 30 33  1  0
 34 31  2  0
 35 32  1  0
 33 36  2  0
 33 34  1  0
 37 35  2  0
 37 36  1  0
 36 38  1  0
  6 39  1  6
  7 40  1  0
  7 41  1  0
  8 42  1  0
  8 43  1  0
 12 44  1  0
 12 45  1  0
 14 46  1  0
 15 47  1  0
 16 48  1  0
 17 49  1  0
 18 50  1  0
 21 51  1  0
 21 52  1  0
 22 53  1  0
 24 54  1  0
 25 55  1  0
 26 56  1  0
 27 57  1  0
 29 58  1  0
 31 59  1  0
 35 60  1  0
 38 61  1  0
 38 62  1  0
M  CHG  1   5  -1
M  END
>  <EmbedRMS>  (326) 
0.08608051948267254

$$$$

     RDKit          3D

 62 65  0  0  0  0  0  0  0  0999 V2000
   10.2873   43.7711   33.8021 C   0  0  0  0  0  0  0  0  0  0  0  0
   11.4095   43.5877   34.3592 O   0  0  0  0  0  0  0  0  0  0  0  0
    9.3683   42.7303   33.6977 O   0  0  0  0  0  0  0  0  0  0  0  0
    9.8856   41.2340   34.2838 P   0  0  0  0  0  5  0  0  0  0  0  0
   10.3649   41.4710   35.8745 O   0  0  0  0  0  1  0  0  0  0  0  0
    9.9518   45.1155   33.2560 C   0  0  2  0  0  0  0  0  0  0  0  0
   11.0707   46.0334   33.4777 N   0  0  0  0  0  0  0  0  0  0  0  0
    8.6626   45.6646   33.9004 C   0  0  0  0  0  0  0  0  0  0  0  0
    8.7973   45.8375   35.3844 C   0  0  0  0  0  0  0  0  0  0  0  0
    8.5651   44.7437   36.2259 O   0  0  0  0  0  0  0  0  0  0  0  0
    9.1588   46.9500   35.8560 O   0  0  0  0  0  0  0  0  0  0  0  0
    8.6820   44.8075   37.6450 C   0  0  0  0  0  0  0  0  0  0  0  0
    7.5360   45.5856   38.2309 C   0  0  0  0  0  0  0  0  0  0  0  0
    6.2329   45.0656   38.1704 C   0  0  0  0  0  0  0  0  0  0  0  0
    7.7493   46.8450   38.8161 C   0  0  0  0  0  0  0  0  0  0  0  0
    5.1598   45.7919   38.6962 C   0  0  0  0  0  0  0  0  0  0  0  0
    6.6734   47.5682   39.3406 C   0  0  0  0  0  0  0  0  0  0  0  0
    5.3799   47.0419   39.2815 C   0  0  0  0  0  0  0  0  0  0  0  0
    8.8080   40.1913   34.2081 O   0  0  0  0  0  0  0  0  0  0  0  0
   11.2382   40.7894   33.3689 O   0  0  0  0  0  0  0  0  0  0  0  0
   10.9190   40.6886   31.9951 C   0  0  0  0  0  0  0  0  0  0  0  0
   11.5181   39.3800   31.4398 C   0  0  0  0  0  0  0  0  0  0  0  0
   12.7485   39.0875   32.0749 O   0  0  0  0  0  0  0  0  0  0  0  0
   10.6054   38.1875   31.6657 C   0  0  0  0  0  0  0  0  0  0  0  0
   12.9361   37.6815   32.0288 C   0  0  0  0  0  0  0  0  0  0  0  0
    9.6423   38.0738   30.6445 O   0  0  0  0  0  0  0  0  0  0  0  0
   11.5765   37.0158   31.7046 C   0  0  0  0  0  0  0  0  0  0  0  0
   13.4908   37.2182   33.3237 N   0  0  0  0  0  0  0  0  0  0  0  0
   11.6102   36.3399   30.4680 O   0  0  0  0  0  0  0  0  0  0  0  0
   14.4762   36.3273   33.5728 C   0  0  0  0  0  0  0  0  0  0  0  0
   13.1181   37.6318   34.5689 C   0  0  0  0  0  0  0  0  0  0  0  0
   15.2063   35.6141   32.6739 N   0  0  0  0  0  0  0  0  0  0  0  0
   14.6733   36.2275   34.9182 C   0  0  0  0  0  0  0  0  0  0  0  0
   13.8226   37.0457   35.5783 N   0  0  0  0  0  0  0  0  0  0  0  0
   16.1636   34.7595   33.1546 C   0  0  0  0  0  0  0  0  0  0  0  0
   15.6515   35.3492   35.4130 C   0  0  0  0  0  0  0  0  0  0  0  0
   16.3791   34.6310   34.5041 N   0  0  0  0  0  0  0  0  0  0  0  0
   15.9003   35.1934   36.8089 N   0  0  0  0  0  0  0  0  0  0  0  0
    9.7770   45.0098   32.1616 H   0  0  0  0  0  0  0  0  0  0  0  0
   11.8802   45.7139   32.8962 H   0  0  0  0  0  0  0  0  0  0  0  0
   10.8081   46.9725   33.0987 H   0  0  0  0  0  0  0  0  0  0  0  0
    7.8161   44.9748   33.6921 H   0  0  0  0  0  0  0  0  0  0  0  0
    8.4033   46.6413   33.4365 H   0  0  0  0  0  0  0  0  0  0  0  0
    8.6590   43.7734   38.0490 H   0  0  0  0  0  0  0  0  0  0  0  0
    9.6639   45.2483   37.9253 H   0  0  0  0  0  0  0  0  0  0  0  0
    6.0499   44.1001   37.7150 H   0  0  0  0  0  0  0  0  0  0  0  0
    8.7452   47.2677   38.8646 H   0  0  0  0  0  0  0  0  0  0  0  0
    4.1574   45.3864   38.6484 H   0  0  0  0  0  0  0  0  0  0  0  0
    6.8421   48.5376   39.7915 H   0  0  0  0  0  0  0  0  0  0  0  0
    4.5483   47.6033   39.6873 H   0  0  0  0  0  0  0  0  0  0  0  0
    9.8310   40.7374   31.7552 H   0  0  0  0  0  0  0  0  0  0  0  0
   11.3996   41.5435   31.4731 H   0  0  0  0  0  0  0  0  0  0  0  0
   11.7002   39.5046   30.3474 H   0  0  0  0  0  0  0  0  0  0  0  0
   10.1104   38.2618   32.6637 H   0  0  0  0  0  0  0  0  0  0  0  0
   13.6696   37.4585   31.2223 H   0  0  0  0  0  0  0  0  0  0  0  0
    8.9001   38.6883   30.8814 H   0  0  0  0  0  0  0  0  0  0  0  0
   11.2690   36.3069   32.5091 H   0  0  0  0  0  0  0  0  0  0  0  0
   12.1426   35.5151   30.6153 H   0  0  0  0  0  0  0  0  0  0  0  0
   12.3358   38.3593   34.7445 H   0  0  0  0  0  0  0  0  0  0  0  0
   16.7569   34.1789   32.4618 H   0  0  0  0  0  0  0  0  0  0  0  0
   15.3530   35.7356   37.5138 H   0  0  0  0  0  0  0  0  0  0  0  0
   16.6362   34.5315   37.1414 H   0  0  0  0  0  0  0  0  0  0  0  0
  1  2  2  0
  1  3  1  0
  3  4  1  0
  4  5  1  0
  6  1  1  0
  7  6  1  0
  6  8  1  0
  8  9  1  0
  9 10  1  0
  9 11  2  0
 10 12  1  0
 12 13  1  0
 13 14  2  0
 15 13  1  0
 14 16  1  0
 17 15  2  0
 16 18  2  0
 18 17  1  0
  4 19  2  0
  4 20  1  0
 21 20  1  0
 21 22  1  0
 22 23  1  0
 22 24  1  0
 23 25  1  0
 24 26  1  0
 24 27  1  0
 27 25  1  0
 25 28  1  0
 27 29  1  0
 30 28  1  0
 31 28  1  0
 32 30  2  0
 30 33  1  0
 34 31  2  0
 35 32  1  0
 33 36  2  0
 33 34  1  0
 37 35  2  0
 37 36  1  0
 36 38  1  0
  6 39  1  6
  7 40  1  0
  7 41  1  0
  8 42  1  0
  8 43  1  0
 12 44  1  0
 12 45  1  0
 14 46  1  0
 15 47  1  0
 16 48  1  0
 17 49  1  0
 18 50  1  0
 21 51  1  0
 21 52  1  0
 22 53  1  0
 24 54  1  0
 25 55  1  0
 26 56  1  0
 27 57  1  0
 29 58  1  0
 31 59  1  0
 35 60  1  0
 38 61  1  0
 38 62  1  0
M  CHG  1   5  -1
M  END
>  <EmbedRMS>  (327) 
0.08935139385147145

$$$$

     RDKit          3D

 62 65  0  0  0  0  0  0  0  0999 V2000
   10.2800   43.7745   33.8045 C   0  0  0  0  0  0  0  0  0  0  0  0
   11.4044   43.5901   34.3577 O   0  0  0  0  0  0  0  0  0  0  0  0
    9.3638   42.7307   33.7004 O   0  0  0  0  0  0  0  0  0  0  0  0
    9.8870   41.2347   34.2843 P   0  0  0  0  0  5  0  0  0  0  0  0
   10.3699   41.4722   35.8736 O   0  0  0  0  0  1  0  0  0  0  0  0
    9.9652   45.1091   33.2216 C   0  0  2  0  0  0  0  0  0  0  0  0
   11.0681   46.0292   33.5042 N   0  0  0  0  0  0  0  0  0  0  0  0
    8.6298   45.6682   33.7636 C   0  0  0  0  0  0  0  0  0  0  0  0
    7.4560   45.1055   33.0217 C   0  0  0  0  0  0  0  0  0  0  0  0
    6.6757   44.1020   33.6076 O   0  0  0  0  0  0  0  0  0  0  0  0
    7.1862   45.5410   31.8693 O   0  0  0  0  0  0  0  0  0  0  0  0
    5.5858   43.4687   32.9393 C   0  0  0  0  0  0  0  0  0  0  0  0
    6.0936   42.4201   31.9871 C   0  0  0  0  0  0  0  0  0  0  0  0
    6.3901   41.1303   32.4556 C   0  0  0  0  0  0  0  0  0  0  0  0
    6.3190   42.7289   30.6352 C   0  0  0  0  0  0  0  0  0  0  0  0
    6.8962   40.1616   31.5832 C   0  0  0  0  0  0  0  0  0  0  0  0
    6.8303   41.7592   29.7668 C   0  0  0  0  0  0  0  0  0  0  0  0
    7.1186   40.4766   30.2403 C   0  0  0  0  0  0  0  0  0  0  0  0
    8.8151   40.1866   34.2154 O   0  0  0  0  0  0  0  0  0  0  0  0
   11.2379   40.7927   33.3655 O   0  0  0  0  0  0  0  0  0  0  0  0
   10.9133   40.6859   31.9931 C   0  0  0  0  0  0  0  0  0  0  0  0
   11.5154   39.3779   31.4395 C   0  0  0  0  0  0  0  0  0  0  0  0
   12.7462   39.0859   32.0740 O   0  0  0  0  0  0  0  0  0  0  0  0
   10.6036   38.1873   31.6666 C   0  0  0  0  0  0  0  0  0  0  0  0
   12.9338   37.6795   32.0283 C   0  0  0  0  0  0  0  0  0  0  0  0
    9.6386   38.0914   30.6472 O   0  0  0  0  0  0  0  0  0  0  0  0
   11.5752   37.0135   31.7060 C   0  0  0  0  0  0  0  0  0  0  0  0
   13.4907   37.2180   33.3233 N   0  0  0  0  0  0  0  0  0  0  0  0
   11.6228   36.3370   30.4691 O   0  0  0  0  0  0  0  0  0  0  0  0
   14.4763   36.3274   33.5726 C   0  0  0  0  0  0  0  0  0  0  0  0
   13.1180   37.6317   34.5686 C   0  0  0  0  0  0  0  0  0  0  0  0
   15.2064   35.6139   32.6738 N   0  0  0  0  0  0  0  0  0  0  0  0
   14.6734   36.2277   34.9181 C   0  0  0  0  0  0  0  0  0  0  0  0
   13.8226   37.0458   35.5781 N   0  0  0  0  0  0  0  0  0  0  0  0
   16.1636   34.7594   33.1546 C   0  0  0  0  0  0  0  0  0  0  0  0
   15.6516   35.3493   35.4130 C   0  0  0  0  0  0  0  0  0  0  0  0
   16.3791   34.6310   34.5041 N   0  0  0  0  0  0  0  0  0  0  0  0
   15.9002   35.1935   36.8089 N   0  0  0  0  0  0  0  0  0  0  0  0
    9.8993   44.9858   32.1170 H   0  0  0  0  0  0  0  0  0  0  0  0
   11.0477   46.2976   34.5161 H   0  0  0  0  0  0  0  0  0  0  0  0
   10.9251   46.9038   32.9482 H   0  0  0  0  0  0  0  0  0  0  0  0
    8.6075   46.7734   33.6434 H   0  0  0  0  0  0  0  0  0  0  0  0
    8.5292   45.4557   34.8508 H   0  0  0  0  0  0  0  0  0  0  0  0
    4.9341   42.9909   33.7015 H   0  0  0  0  0  0  0  0  0  0  0  0
    4.9624   44.2229   32.4105 H   0  0  0  0  0  0  0  0  0  0  0  0
    6.2296   40.8761   33.4959 H   0  0  0  0  0  0  0  0  0  0  0  0
    6.0973   43.7166   30.2519 H   0  0  0  0  0  0  0  0  0  0  0  0
    7.1228   39.1691   31.9503 H   0  0  0  0  0  0  0  0  0  0  0  0
    7.0028   42.0023   28.7264 H   0  0  0  0  0  0  0  0  0  0  0  0
    7.5143   39.7276   29.5668 H   0  0  0  0  0  0  0  0  0  0  0  0
    9.8236   40.7227   31.7579 H   0  0  0  0  0  0  0  0  0  0  0  0
   11.3849   41.5422   31.4656 H   0  0  0  0  0  0  0  0  0  0  0  0
   11.6974   39.5021   30.3469 H   0  0  0  0  0  0  0  0  0  0  0  0
   10.1067   38.2782   32.6617 H   0  0  0  0  0  0  0  0  0  0  0  0
   13.6662   37.4551   31.2211 H   0  0  0  0  0  0  0  0  0  0  0  0
    8.9746   37.4204   30.9535 H   0  0  0  0  0  0  0  0  0  0  0  0
   11.2850   36.3051   32.5183 H   0  0  0  0  0  0  0  0  0  0  0  0
   10.8673   35.6930   30.4660 H   0  0  0  0  0  0  0  0  0  0  0  0
   12.3353   38.3587   34.7441 H   0  0  0  0  0  0  0  0  0  0  0  0
   16.7570   34.1787   32.4619 H   0  0  0  0  0  0  0  0  0  0  0  0
   16.6360   34.5316   37.1414 H   0  0  0  0  0  0  0  0  0  0  0  0
   15.3530   35.7358   37.5137 H   0  0  0  0  0  0  0  0  0  0  0  0
  1  2  2  0
  1  3  1  0
  3  4  1  0
  4  5  1  0
  6  1  1  0
  7  6  1  0
  6  8  1  0
  8  9  1  0
  9 10  1  0
  9 11  2  0
 10 12  1  0
 12 13  1  0
 13 14  2  0
 15 13  1  0
 14 16  1  0
 17 15  2  0
 16 18  2  0
 18 17  1  0
  4 19  2  0
  4 20  1  0
 21 20  1  0
 21 22  1  0
 22 23  1  0
 22 24  1  0
 23 25  1  0
 24 26  1  0
 24 27  1  0
 27 25  1  0
 25 28  1  0
 27 29  1  0
 30 28  1  0
 31 28  1  0
 32 30  2  0
 30 33  1  0
 34 31  2  0
 35 32  1  0
 33 36  2  0
 33 34  1  0
 37 35  2  0
 37 36  1  0
 36 38  1  0
  6 39  1  6
  7 40  1  0
  7 41  1  0
  8 42  1  0
  8 43  1  0
 12 44  1  0
 12 45  1  0
 14 46  1  0
 15 47  1  0
 16 48  1  0
 17 49  1  0
 18 50  1  0
 21 51  1  0
 21 52  1  0
 22 53  1  0
 24 54  1  0
 25 55  1  0
 26 56  1  0
 27 57  1  0
 29 58  1  0
 31 59  1  0
 35 60  1  0
 38 61  1  0
 38 62  1  0
M  CHG  1   5  -1
M  END
>  <EmbedRMS>  (328) 
0.08809407458171986

$$$$

     RDKit          3D

 62 65  0  0  0  0  0  0  0  0999 V2000
   10.2844   43.7742   33.8068 C   0  0  0  0  0  0  0  0  0  0  0  0
   11.4069   43.5903   34.3635 O   0  0  0  0  0  0  0  0  0  0  0  0
    9.3680   42.7310   33.6987 O   0  0  0  0  0  0  0  0  0  0  0  0
    9.8859   41.2341   34.2835 P   0  0  0  0  0  5  0  0  0  0  0  0
   10.3663   41.4697   35.8740 O   0  0  0  0  0  1  0  0  0  0  0  0
    9.9491   45.1164   33.2548 C   0  0  2  0  0  0  0  0  0  0  0  0
   11.0754   46.0280   33.4733 N   0  0  0  0  0  0  0  0  0  0  0  0
    8.6782   45.6534   33.9425 C   0  0  0  0  0  0  0  0  0  0  0  0
    8.1785   46.9029   33.2855 C   0  0  0  0  0  0  0  0  0  0  0  0
    8.4561   48.1451   33.8670 O   0  0  0  0  0  0  0  0  0  0  0  0
    7.5401   46.8264   32.2003 O   0  0  0  0  0  0  0  0  0  0  0  0
    8.0080   49.3831   33.3197 C   0  0  0  0  0  0  0  0  0  0  0  0
    6.5241   49.5365   33.5139 C   0  0  0  0  0  0  0  0  0  0  0  0
    5.6490   49.4921   32.4156 C   0  0  0  0  0  0  0  0  0  0  0  0
    5.9998   49.6984   34.8065 C   0  0  0  0  0  0  0  0  0  0  0  0
    4.2696   49.6166   32.6098 C   0  0  0  0  0  0  0  0  0  0  0  0
    4.6199   49.8228   34.9964 C   0  0  0  0  0  0  0  0  0  0  0  0
    3.7555   49.7825   33.8989 C   0  0  0  0  0  0  0  0  0  0  0  0
    8.8081   40.1914   34.2081 O   0  0  0  0  0  0  0  0  0  0  0  0
   11.2374   40.7898   33.3677 O   0  0  0  0  0  0  0  0  0  0  0  0
   10.9156   40.6881   31.9947 C   0  0  0  0  0  0  0  0  0  0  0  0
   11.5262   39.3870   31.4363 C   0  0  0  0  0  0  0  0  0  0  0  0
   12.7492   39.0892   32.0818 O   0  0  0  0  0  0  0  0  0  0  0  0
   10.6123   38.1893   31.6461 C   0  0  0  0  0  0  0  0  0  0  0  0
   12.9374   37.6826   32.0301 C   0  0  0  0  0  0  0  0  0  0  0  0
    9.6150   38.0838   30.6538 O   0  0  0  0  0  0  0  0  0  0  0  0
   11.5793   37.0136   31.7014 C   0  0  0  0  0  0  0  0  0  0  0  0
   13.4906   37.2169   33.3242 N   0  0  0  0  0  0  0  0  0  0  0  0
   11.6216   36.3252   30.4725 O   0  0  0  0  0  0  0  0  0  0  0  0
   14.4763   36.3266   33.5731 C   0  0  0  0  0  0  0  0  0  0  0  0
   13.1182   37.6308   34.5694 C   0  0  0  0  0  0  0  0  0  0  0  0
   15.2065   35.6137   32.6740 N   0  0  0  0  0  0  0  0  0  0  0  0
   14.6735   36.2270   34.9185 C   0  0  0  0  0  0  0  0  0  0  0  0
   13.8229   37.0451   35.5787 N   0  0  0  0  0  0  0  0  0  0  0  0
   16.1639   34.7593   33.1547 C   0  0  0  0  0  0  0  0  0  0  0  0
   15.6519   35.3489   35.4132 C   0  0  0  0  0  0  0  0  0  0  0  0
   16.3794   34.6308   34.5042 N   0  0  0  0  0  0  0  0  0  0  0  0
   15.9006   35.1931   36.8090 N   0  0  0  0  0  0  0  0  0  0  0  0
    9.7634   45.0049   32.1623 H   0  0  0  0  0  0  0  0  0  0  0  0
   11.8949   45.6778   32.9243 H   0  0  0  0  0  0  0  0  0  0  0  0
   10.8451   46.9558   33.0501 H   0  0  0  0  0  0  0  0  0  0  0  0
    7.8676   44.8932   33.8958 H   0  0  0  0  0  0  0  0  0  0  0  0
    8.8865   45.8576   35.0157 H   0  0  0  0  0  0  0  0  0  0  0  0
    8.5272   50.2120   33.8455 H   0  0  0  0  0  0  0  0  0  0  0  0
    8.2901   49.4470   32.2457 H   0  0  0  0  0  0  0  0  0  0  0  0
    6.0322   49.3591   31.4115 H   0  0  0  0  0  0  0  0  0  0  0  0
    6.6597   49.7264   35.6649 H   0  0  0  0  0  0  0  0  0  0  0  0
    3.5990   49.5826   31.7609 H   0  0  0  0  0  0  0  0  0  0  0  0
    4.2207   49.9485   35.9945 H   0  0  0  0  0  0  0  0  0  0  0  0
    2.6877   49.8780   34.0474 H   0  0  0  0  0  0  0  0  0  0  0  0
    9.8255   40.7180   31.7577 H   0  0  0  0  0  0  0  0  0  0  0  0
   11.3830   41.5502   31.4724 H   0  0  0  0  0  0  0  0  0  0  0  0
   11.7292   39.5285   30.3502 H   0  0  0  0  0  0  0  0  0  0  0  0
   10.1140   38.2719   32.6379 H   0  0  0  0  0  0  0  0  0  0  0  0
   13.6726   37.4634   31.2240 H   0  0  0  0  0  0  0  0  0  0  0  0
   10.0536   38.1083   29.7638 H   0  0  0  0  0  0  0  0  0  0  0  0
   11.2646   36.3134   32.5107 H   0  0  0  0  0  0  0  0  0  0  0  0
   12.1549   35.5031   30.6316 H   0  0  0  0  0  0  0  0  0  0  0  0
   12.3362   38.3586   34.7450 H   0  0  0  0  0  0  0  0  0  0  0  0
   16.7574   34.1788   32.4619 H   0  0  0  0  0  0  0  0  0  0  0  0
   16.6366   34.5314   37.1415 H   0  0  0  0  0  0  0  0  0  0  0  0
   15.3533   35.7353   37.5139 H   0  0  0  0  0  0  0  0  0  0  0  0
  1  2  2  0
  1  3  1  0
  3  4  1  0
  4  5  1  0
  6  1  1  0
  7  6  1  0
  6  8  1  0
  8  9  1  0
  9 10  1  0
  9 11  2  0
 10 12  1  0
 12 13  1  0
 13 14  2  0
 15 13  1  0
 14 16  1  0
 17 15  2  0
 16 18  2  0
 18 17  1  0
  4 19  2  0
  4 20  1  0
 21 20  1  0
 21 22  1  0
 22 23  1  0
 22 24  1  0
 23 25  1  0
 24 26  1  0
 24 27  1  0
 27 25  1  0
 25 28  1  0
 27 29  1  0
 30 28  1  0
 31 28  1  0
 32 30  2  0
 30 33  1  0
 34 31  2  0
 35 32  1  0
 33 36  2  0
 33 34  1  0
 37 35  2  0
 37 36  1  0
 36 38  1  0
  6 39  1  6
  7 40  1  0
  7 41  1  0
  8 42  1  0
  8 43  1  0
 12 44  1  0
 12 45  1  0
 14 46  1  0
 15 47  1  0
 16 48  1  0
 17 49  1  0
 18 50  1  0
 21 51  1  0
 21 52  1  0
 22 53  1  0
 24 54  1  0
 25 55  1  0
 26 56  1  0
 27 57  1  0
 29 58  1  0
 31 59  1  0
 35 60  1  0
 38 61  1  0
 38 62  1  0
M  CHG  1   5  -1
M  END
>  <EmbedRMS>  (329) 
0.08800723027227882

$$$$

     RDKit          3D

 62 65  0  0  0  0  0  0  0  0999 V2000
   10.2829   43.7754   33.8078 C   0  0  0  0  0  0  0  0  0  0  0  0
   11.4086   43.5914   34.3578 O   0  0  0  0  0  0  0  0  0  0  0  0
    9.3666   42.7319   33.7017 O   0  0  0  0  0  0  0  0  0  0  0  0
    9.8860   41.2347   34.2846 P   0  0  0  0  0  5  0  0  0  0  0  0
   10.3662   41.4696   35.8751 O   0  0  0  0  0  1  0  0  0  0  0  0
    9.9538   45.1112   33.2431 C   0  0  2  0  0  0  0  0  0  0  0  0
   11.0723   46.0271   33.4848 N   0  0  0  0  0  0  0  0  0  0  0  0
    8.6388   45.6433   33.8516 C   0  0  0  0  0  0  0  0  0  0  0  0
    8.2428   46.9445   33.2281 C   0  0  0  0  0  0  0  0  0  0  0  0
    7.7910   46.9605   31.9043 O   0  0  0  0  0  0  0  0  0  0  0  0
    8.3598   48.0161   33.8832 O   0  0  0  0  0  0  0  0  0  0  0  0
    7.6075   48.1611   31.1585 C   0  0  0  0  0  0  0  0  0  0  0  0
    8.9408   48.7843   30.8463 C   0  0  0  0  0  0  0  0  0  0  0  0
    9.3025   50.0221   31.4039 C   0  0  0  0  0  0  0  0  0  0  0  0
    9.8538   48.1067   30.0219 C   0  0  0  0  0  0  0  0  0  0  0  0
   10.5580   50.5754   31.1330 C   0  0  0  0  0  0  0  0  0  0  0  0
   11.1084   48.6630   29.7544 C   0  0  0  0  0  0  0  0  0  0  0  0
   11.4600   49.8967   30.3089 C   0  0  0  0  0  0  0  0  0  0  0  0
    8.8089   40.1914   34.2081 O   0  0  0  0  0  0  0  0  0  0  0  0
   11.2386   40.7916   33.3693 O   0  0  0  0  0  0  0  0  0  0  0  0
   10.9187   40.6907   31.9959 C   0  0  0  0  0  0  0  0  0  0  0  0
   11.5175   39.3824   31.4412 C   0  0  0  0  0  0  0  0  0  0  0  0
   12.7494   39.0893   32.0757 O   0  0  0  0  0  0  0  0  0  0  0  0
   10.6036   38.1900   31.6659 C   0  0  0  0  0  0  0  0  0  0  0  0
   12.9401   37.6834   32.0276 C   0  0  0  0  0  0  0  0  0  0  0  0
    9.6376   38.0785   30.6474 O   0  0  0  0  0  0  0  0  0  0  0  0
   11.5803   37.0204   31.6937 C   0  0  0  0  0  0  0  0  0  0  0  0
   13.4902   37.2177   33.3237 N   0  0  0  0  0  0  0  0  0  0  0  0
   11.6117   36.3193   30.4680 O   0  0  0  0  0  0  0  0  0  0  0  0
   14.4758   36.3271   33.5731 C   0  0  0  0  0  0  0  0  0  0  0  0
   13.1176   37.6317   34.5688 C   0  0  0  0  0  0  0  0  0  0  0  0
   15.2064   35.6141   32.6742 N   0  0  0  0  0  0  0  0  0  0  0  0
   14.6729   36.2274   34.9184 C   0  0  0  0  0  0  0  0  0  0  0  0
   13.8221   37.0457   35.5783 N   0  0  0  0  0  0  0  0  0  0  0  0
   16.1637   34.7597   33.1549 C   0  0  0  0  0  0  0  0  0  0  0  0
   15.6514   35.3493   35.4133 C   0  0  0  0  0  0  0  0  0  0  0  0
   16.3791   34.6312   34.5044 N   0  0  0  0  0  0  0  0  0  0  0  0
   15.9001   35.1935   36.8091 N   0  0  0  0  0  0  0  0  0  0  0  0
    9.8232   44.9843   32.1450 H   0  0  0  0  0  0  0  0  0  0  0  0
   10.9453   46.8826   32.8965 H   0  0  0  0  0  0  0  0  0  0  0  0
   11.0721   46.3302   34.4867 H   0  0  0  0  0  0  0  0  0  0  0  0
    8.7462   45.7658   34.9523 H   0  0  0  0  0  0  0  0  0  0  0  0
    7.8194   44.9140   33.6716 H   0  0  0  0  0  0  0  0  0  0  0  0
    7.0942   47.9133   30.2056 H   0  0  0  0  0  0  0  0  0  0  0  0
    6.9481   48.8590   31.7197 H   0  0  0  0  0  0  0  0  0  0  0  0
    8.6174   50.5555   32.0510 H   0  0  0  0  0  0  0  0  0  0  0  0
    9.5954   47.1461   29.5936 H   0  0  0  0  0  0  0  0  0  0  0  0
   10.8328   51.5291   31.5647 H   0  0  0  0  0  0  0  0  0  0  0  0
   11.8091   48.1363   29.1196 H   0  0  0  0  0  0  0  0  0  0  0  0
   12.4320   50.3256   30.1019 H   0  0  0  0  0  0  0  0  0  0  0  0
    9.8307   40.7396   31.7563 H   0  0  0  0  0  0  0  0  0  0  0  0
   11.3992   41.5455   31.4737 H   0  0  0  0  0  0  0  0  0  0  0  0
   11.6989   39.5091   30.3489 H   0  0  0  0  0  0  0  0  0  0  0  0
   10.1130   38.2590   32.6664 H   0  0  0  0  0  0  0  0  0  0  0  0
   13.6800   37.4628   31.2265 H   0  0  0  0  0  0  0  0  0  0  0  0
    8.8952   38.6909   30.8891 H   0  0  0  0  0  0  0  0  0  0  0  0
   11.2830   36.3060   32.4929 H   0  0  0  0  0  0  0  0  0  0  0  0
   11.8860   36.9589   29.7593 H   0  0  0  0  0  0  0  0  0  0  0  0
   12.3360   38.3600   34.7442 H   0  0  0  0  0  0  0  0  0  0  0  0
   16.7572   34.1793   32.4621 H   0  0  0  0  0  0  0  0  0  0  0  0
   16.6362   34.5318   37.1416 H   0  0  0  0  0  0  0  0  0  0  0  0
   15.3528   35.7357   37.5140 H   0  0  0  0  0  0  0  0  0  0  0  0
  1  2  2  0
  1  3  1  0
  3  4  1  0
  4  5  1  0
  6  1  1  0
  7  6  1  0
  6  8  1  0
  8  9  1  0
  9 10  1  0
  9 11  2  0
 10 12  1  0
 12 13  1  0
 13 14  2  0
 15 13  1  0
 14 16  1  0
 17 15  2  0
 16 18  2  0
 18 17  1  0
  4 19  2  0
  4 20  1  0
 21 20  1  0
 21 22  1  0
 22 23  1  0
 22 24  1  0
 23 25  1  0
 24 26  1  0
 24 27  1  0
 27 25  1  0
 25 28  1  0
 27 29  1  0
 30 28  1  0
 31 28  1  0
 32 30  2  0
 30 33  1  0
 34 31  2  0
 35 32  1  0
 33 36  2  0
 33 34  1  0
 37 35  2  0
 37 36  1  0
 36 38  1  0
  6 39  1  6
  7 40  1  0
  7 41  1  0
  8 42  1  0
  8 43  1  0
 12 44  1  0
 12 45  1  0
 14 46  1  0
 15 47  1  0
 16 48  1  0
 17 49  1  0
 18 50  1  0
 21 51  1  0
 21 52  1  0
 22 53  1  0
 24 54  1  0
 25 55  1  0
 26 56  1  0
 27 57  1  0
 29 58  1  0
 31 59  1  0
 35 60  1  0
 38 61  1  0
 38 62  1  0
M  CHG  1   5  -1
M  END
>  <EmbedRMS>  (330) 
0.08801770053046497

$$$$

     RDKit          3D

 62 65  0  0  0  0  0  0  0  0999 V2000
   10.2838   43.7719   33.8130 C   0  0  0  0  0  0  0  0  0  0  0  0
   11.4075   43.5834   34.3651 O   0  0  0  0  0  0  0  0  0  0  0  0
    9.3690   42.7284   33.7014 O   0  0  0  0  0  0  0  0  0  0  0  0
    9.8859   41.2315   34.2834 P   0  0  0  0  0  5  0  0  0  0  0  0
   10.3652   41.4665   35.8743 O   0  0  0  0  0  1  0  0  0  0  0  0
    9.9621   45.1148   33.2414 C   0  0  2  0  0  0  0  0  0  0  0  0
   11.0665   46.0472   33.4758 N   0  0  0  0  0  0  0  0  0  0  0  0
    8.6671   45.7002   33.8408 C   0  0  0  0  0  0  0  0  0  0  0  0
    7.4410   44.9149   33.4727 C   0  0  0  0  0  0  0  0  0  0  0  0
    7.3483   44.3152   32.2131 O   0  0  0  0  0  0  0  0  0  0  0  0
    6.4874   44.8299   34.2937 O   0  0  0  0  0  0  0  0  0  0  0  0
    6.2449   43.5079   31.8208 C   0  0  0  0  0  0  0  0  0  0  0  0
    6.5390   42.8990   30.4820 C   0  0  0  0  0  0  0  0  0  0  0  0
    6.2587   43.6114   29.3047 C   0  0  0  0  0  0  0  0  0  0  0  0
    7.1734   41.6485   30.3969 C   0  0  0  0  0  0  0  0  0  0  0  0
    6.5843   43.0668   28.0584 C   0  0  0  0  0  0  0  0  0  0  0  0
    7.4996   41.1086   29.1487 C   0  0  0  0  0  0  0  0  0  0  0  0
    7.2030   41.8160   27.9805 C   0  0  0  0  0  0  0  0  0  0  0  0
    8.8074   40.1899   34.2059 O   0  0  0  0  0  0  0  0  0  0  0  0
   11.2387   40.7893   33.3679 O   0  0  0  0  0  0  0  0  0  0  0  0
   10.9194   40.6887   31.9942 C   0  0  0  0  0  0  0  0  0  0  0  0
   11.5170   39.3796   31.4393 C   0  0  0  0  0  0  0  0  0  0  0  0
   12.7481   39.0860   32.0725 O   0  0  0  0  0  0  0  0  0  0  0  0
   10.6036   38.1889   31.6681 C   0  0  0  0  0  0  0  0  0  0  0  0
   12.9338   37.6795   32.0276 C   0  0  0  0  0  0  0  0  0  0  0  0
    9.6384   38.0788   30.6486 O   0  0  0  0  0  0  0  0  0  0  0  0
   11.5742   37.0152   31.7055 C   0  0  0  0  0  0  0  0  0  0  0  0
   13.4904   37.2179   33.3229 N   0  0  0  0  0  0  0  0  0  0  0  0
   11.6207   36.3383   30.4687 O   0  0  0  0  0  0  0  0  0  0  0  0
   14.4762   36.3273   33.5724 C   0  0  0  0  0  0  0  0  0  0  0  0
   13.1179   37.6317   34.5682 C   0  0  0  0  0  0  0  0  0  0  0  0
   15.2064   35.6139   32.6737 N   0  0  0  0  0  0  0  0  0  0  0  0
   14.6733   36.2278   34.9179 C   0  0  0  0  0  0  0  0  0  0  0  0
   13.8225   37.0460   35.5778 N   0  0  0  0  0  0  0  0  0  0  0  0
   16.1636   34.7594   33.1546 C   0  0  0  0  0  0  0  0  0  0  0  0
   15.6515   35.3494   35.4129 C   0  0  0  0  0  0  0  0  0  0  0  0
   16.3791   34.6311   34.5041 N   0  0  0  0  0  0  0  0  0  0  0  0
   15.9001   35.1936   36.8088 N   0  0  0  0  0  0  0  0  0  0  0  0
    9.8352   45.0037   32.1419 H   0  0  0  0  0  0  0  0  0  0  0  0
   11.2669   46.1202   34.5009 H   0  0  0  0  0  0  0  0  0  0  0  0
   11.9270   45.6983   32.9929 H   0  0  0  0  0  0  0  0  0  0  0  0
    8.7595   45.7501   34.9485 H   0  0  0  0  0  0  0  0  0  0  0  0
    8.5304   46.7374   33.4660 H   0  0  0  0  0  0  0  0  0  0  0  0
    5.3254   44.1307   31.7681 H   0  0  0  0  0  0  0  0  0  0  0  0
    6.0770   42.7073   32.5748 H   0  0  0  0  0  0  0  0  0  0  0  0
    5.7924   44.5878   29.3524 H   0  0  0  0  0  0  0  0  0  0  0  0
    7.4150   41.0939   31.2952 H   0  0  0  0  0  0  0  0  0  0  0  0
    6.3624   43.6172   27.1533 H   0  0  0  0  0  0  0  0  0  0  0  0
    7.9854   40.1440   29.0860 H   0  0  0  0  0  0  0  0  0  0  0  0
    7.4572   41.3972   27.0153 H   0  0  0  0  0  0  0  0  0  0  0  0
    9.8324   40.7364   31.7545 H   0  0  0  0  0  0  0  0  0  0  0  0
   11.3994   41.5435   31.4717 H   0  0  0  0  0  0  0  0  0  0  0  0
   11.6970   39.5033   30.3464 H   0  0  0  0  0  0  0  0  0  0  0  0
   10.1132   38.2630   32.6685 H   0  0  0  0  0  0  0  0  0  0  0  0
   13.6658   37.4536   31.2205 H   0  0  0  0  0  0  0  0  0  0  0  0
    8.8737   38.6511   30.9170 H   0  0  0  0  0  0  0  0  0  0  0  0
   11.2853   36.3050   32.5168 H   0  0  0  0  0  0  0  0  0  0  0  0
   10.8509   35.7115   30.4574 H   0  0  0  0  0  0  0  0  0  0  0  0
   12.3353   38.3589   34.7437 H   0  0  0  0  0  0  0  0  0  0  0  0
   16.7570   34.1787   32.4619 H   0  0  0  0  0  0  0  0  0  0  0  0
   16.6359   34.5317   37.1413 H   0  0  0  0  0  0  0  0  0  0  0  0
   15.3528   35.7359   37.5136 H   0  0  0  0  0  0  0  0  0  0  0  0
  1  2  2  0
  1  3  1  0
  3  4  1  0
  4  5  1  0
  6  1  1  0
  7  6  1  0
  6  8  1  0
  8  9  1  0
  9 10  1  0
  9 11  2  0
 10 12  1  0
 12 13  1  0
 13 14  2  0
 15 13  1  0
 14 16  1  0
 17 15  2  0
 16 18  2  0
 18 17  1  0
  4 19  2  0
  4 20  1  0
 21 20  1  0
 21 22  1  0
 22 23  1  0
 22 24  1  0
 23 25  1  0
 24 26  1  0
 24 27  1  0
 27 25  1  0
 25 28  1  0
 27 29  1  0
 30 28  1  0
 31 28  1  0
 32 30  2  0
 30 33  1  0
 34 31  2  0
 35 32  1  0
 33 36  2  0
 33 34  1  0
 37 35  2  0
 37 36  1  0
 36 38  1  0
  6 39  1  6
  7 40  1  0
  7 41  1  0
  8 42  1  0
  8 43  1  0
 12 44  1  0
 12 45  1  0
 14 46  1  0
 15 47  1  0
 16 48  1  0
 17 49  1  0
 18 50  1  0
 21 51  1  0
 21 52  1  0
 22 53  1  0
 24 54  1  0
 25 55  1  0
 26 56  1  0
 27 57  1  0
 29 58  1  0
 31 59  1  0
 35 60  1  0
 38 61  1  0
 38 62  1  0
M  CHG  1   5  -1
M  END
>  <EmbedRMS>  (331) 
0.09017302227354995

$$$$

     RDKit          3D

 62 65  0  0  0  0  0  0  0  0999 V2000
   10.2850   43.7704   33.8130 C   0  0  0  0  0  0  0  0  0  0  0  0
   11.4100   43.5799   34.3615 O   0  0  0  0  0  0  0  0  0  0  0  0
    9.3699   42.7290   33.6958 O   0  0  0  0  0  0  0  0  0  0  0  0
    9.8846   41.2327   34.2834 P   0  0  0  0  0  5  0  0  0  0  0  0
   10.3652   41.4698   35.8738 O   0  0  0  0  0  1  0  0  0  0  0  0
    9.9578   45.1156   33.2591 C   0  0  2  0  0  0  0  0  0  0  0  0
   11.0667   46.0510   33.4667 N   0  0  0  0  0  0  0  0  0  0  0  0
    8.6449   45.6856   33.8391 C   0  0  0  0  0  0  0  0  0  0  0  0
    8.6432   45.7815   35.3492 C   0  0  0  0  0  0  0  0  0  0  0  0
    7.8866   44.9314   36.1680 O   0  0  0  0  0  0  0  0  0  0  0  0
    9.3524   46.6627   35.9022 O   0  0  0  0  0  0  0  0  0  0  0  0
    6.8659   44.0534   35.7034 C   0  0  0  0  0  0  0  0  0  0  0  0
    6.2778   43.3205   36.8728 C   0  0  0  0  0  0  0  0  0  0  0  0
    6.7989   42.0761   37.2648 C   0  0  0  0  0  0  0  0  0  0  0  0
    5.2445   43.9026   37.6251 C   0  0  0  0  0  0  0  0  0  0  0  0
    6.2733   41.4119   38.3775 C   0  0  0  0  0  0  0  0  0  0  0  0
    4.7216   43.2351   38.7373 C   0  0  0  0  0  0  0  0  0  0  0  0
    5.2340   41.9898   39.1119 C   0  0  0  0  0  0  0  0  0  0  0  0
    8.8059   40.1911   34.2085 O   0  0  0  0  0  0  0  0  0  0  0  0
   11.2362   40.7883   33.3678 O   0  0  0  0  0  0  0  0  0  0  0  0
   10.9140   40.6855   31.9949 C   0  0  0  0  0  0  0  0  0  0  0  0
   11.5171   39.3796   31.4407 C   0  0  0  0  0  0  0  0  0  0  0  0
   12.7489   39.0884   32.0759 O   0  0  0  0  0  0  0  0  0  0  0  0
   10.6052   38.1876   31.6659 C   0  0  0  0  0  0  0  0  0  0  0  0
   12.9412   37.6827   32.0277 C   0  0  0  0  0  0  0  0  0  0  0  0
    9.6358   38.0930   30.6502 O   0  0  0  0  0  0  0  0  0  0  0  0
   11.5827   37.0178   31.6936 C   0  0  0  0  0  0  0  0  0  0  0  0
   13.4909   37.2176   33.3239 N   0  0  0  0  0  0  0  0  0  0  0  0
   11.6140   36.3179   30.4674 O   0  0  0  0  0  0  0  0  0  0  0  0
   14.4762   36.3270   33.5733 C   0  0  0  0  0  0  0  0  0  0  0  0
   13.1179   37.6316   34.5688 C   0  0  0  0  0  0  0  0  0  0  0  0
   15.2067   35.6140   32.6744 N   0  0  0  0  0  0  0  0  0  0  0  0
   14.6731   36.2273   34.9186 C   0  0  0  0  0  0  0  0  0  0  0  0
   13.8223   37.0456   35.5785 N   0  0  0  0  0  0  0  0  0  0  0  0
   16.1639   34.7595   33.1551 C   0  0  0  0  0  0  0  0  0  0  0  0
   15.6515   35.3491   35.4135 C   0  0  0  0  0  0  0  0  0  0  0  0
   16.3792   34.6310   34.5046 N   0  0  0  0  0  0  0  0  0  0  0  0
   15.9002   35.1934   36.8093 N   0  0  0  0  0  0  0  0  0  0  0  0
    9.8094   44.9960   32.1631 H   0  0  0  0  0  0  0  0  0  0  0  0
   11.8899   45.7335   32.9038 H   0  0  0  0  0  0  0  0  0  0  0  0
   11.3568   46.0685   34.4713 H   0  0  0  0  0  0  0  0  0  0  0  0
    7.7943   45.0739   33.4766 H   0  0  0  0  0  0  0  0  0  0  0  0
    8.4849   46.7042   33.4238 H   0  0  0  0  0  0  0  0  0  0  0  0
    7.2838   43.3250   34.9798 H   0  0  0  0  0  0  0  0  0  0  0  0
    6.0742   44.6396   35.1877 H   0  0  0  0  0  0  0  0  0  0  0  0
    7.6094   41.6208   36.7100 H   0  0  0  0  0  0  0  0  0  0  0  0
    4.8453   44.8714   37.3509 H   0  0  0  0  0  0  0  0  0  0  0  0
    6.6743   40.4508   38.6724 H   0  0  0  0  0  0  0  0  0  0  0  0
    3.9217   43.6851   39.3111 H   0  0  0  0  0  0  0  0  0  0  0  0
    4.8292   41.4751   39.9736 H   0  0  0  0  0  0  0  0  0  0  0  0
    9.8240   40.7212   31.7575 H   0  0  0  0  0  0  0  0  0  0  0  0
   11.3869   41.5432   31.4704 H   0  0  0  0  0  0  0  0  0  0  0  0
   11.6994   39.5066   30.3485 H   0  0  0  0  0  0  0  0  0  0  0  0
   10.1121   38.2722   32.6631 H   0  0  0  0  0  0  0  0  0  0  0  0
   13.6817   37.4629   31.2269 H   0  0  0  0  0  0  0  0  0  0  0  0
    9.0035   37.3829   30.9350 H   0  0  0  0  0  0  0  0  0  0  0  0
   11.2846   36.3039   32.4928 H   0  0  0  0  0  0  0  0  0  0  0  0
   11.8849   36.9589   29.7588 H   0  0  0  0  0  0  0  0  0  0  0  0
   12.3362   38.3599   34.7440 H   0  0  0  0  0  0  0  0  0  0  0  0
   16.7575   34.1790   32.4623 H   0  0  0  0  0  0  0  0  0  0  0  0
   15.3529   35.7356   37.5141 H   0  0  0  0  0  0  0  0  0  0  0  0
   16.6362   34.5317   37.1418 H   0  0  0  0  0  0  0  0  0  0  0  0
  1  2  2  0
  1  3  1  0
  3  4  1  0
  4  5  1  0
  6  1  1  0
  7  6  1  0
  6  8  1  0
  8  9  1  0
  9 10  1  0
  9 11  2  0
 10 12  1  0
 12 13  1  0
 13 14  2  0
 15 13  1  0
 14 16  1  0
 17 15  2  0
 16 18  2  0
 18 17  1  0
  4 19  2  0
  4 20  1  0
 21 20  1  0
 21 22  1  0
 22 23  1  0
 22 24  1  0
 23 25  1  0
 24 26  1  0
 24 27  1  0
 27 25  1  0
 25 28  1  0
 27 29  1  0
 30 28  1  0
 31 28  1  0
 32 30  2  0
 30 33  1  0
 34 31  2  0
 35 32  1  0
 33 36  2  0
 33 34  1  0
 37 35  2  0
 37 36  1  0
 36 38  1  0
  6 39  1  6
  7 40  1  0
  7 41  1  0
  8 42  1  0
  8 43  1  0
 12 44  1  0
 12 45  1  0
 14 46  1  0
 15 47  1  0
 16 48  1  0
 17 49  1  0
 18 50  1  0
 21 51  1  0
 21 52  1  0
 22 53  1  0
 24 54  1  0
 25 55  1  0
 26 56  1  0
 27 57  1  0
 29 58  1  0
 31 59  1  0
 35 60  1  0
 38 61  1  0
 38 62  1  0
M  CHG  1   5  -1
M  END
>  <EmbedRMS>  (332) 
0.08873042374956784

$$$$

     RDKit          3D

 62 65  0  0  0  0  0  0  0  0999 V2000
   10.2804   43.7763   33.8103 C   0  0  0  0  0  0  0  0  0  0  0  0
   11.4064   43.5919   34.3598 O   0  0  0  0  0  0  0  0  0  0  0  0
    9.3706   42.7289   33.6943 O   0  0  0  0  0  0  0  0  0  0  0  0
    9.8872   41.2338   34.2825 P   0  0  0  0  0  5  0  0  0  0  0  0
   10.3664   41.4714   35.8732 O   0  0  0  0  0  1  0  0  0  0  0  0
    9.9458   45.1199   33.2591 C   0  0  2  0  0  0  0  0  0  0  0  0
   11.0788   46.0227   33.4726 N   0  0  0  0  0  0  0  0  0  0  0  0
    8.6680   45.7016   33.9055 C   0  0  0  0  0  0  0  0  0  0  0  0
    7.4266   44.9485   33.4940 C   0  0  0  0  0  0  0  0  0  0  0  0
    6.7322   44.0830   34.3536 O   0  0  0  0  0  0  0  0  0  0  0  0
    7.0090   45.0789   32.3132 O   0  0  0  0  0  0  0  0  0  0  0  0
    7.0099   43.8959   35.7417 C   0  0  0  0  0  0  0  0  0  0  0  0
    6.5674   45.0901   36.5449 C   0  0  0  0  0  0  0  0  0  0  0  0
    7.4255   45.6665   37.4968 C   0  0  0  0  0  0  0  0  0  0  0  0
    5.2727   45.6108   36.3817 C   0  0  0  0  0  0  0  0  0  0  0  0
    7.0026   46.7640   38.2532 C   0  0  0  0  0  0  0  0  0  0  0  0
    4.8536   46.7080   37.1405 C   0  0  0  0  0  0  0  0  0  0  0  0
    5.7186   47.2857   38.0738 C   0  0  0  0  0  0  0  0  0  0  0  0
    8.8084   40.1920   34.2081 O   0  0  0  0  0  0  0  0  0  0  0  0
   11.2382   40.7889   33.3662 O   0  0  0  0  0  0  0  0  0  0  0  0
   10.9152   40.6847   31.9933 C   0  0  0  0  0  0  0  0  0  0  0  0
   11.5169   39.3772   31.4391 C   0  0  0  0  0  0  0  0  0  0  0  0
   12.7475   39.0852   32.0735 O   0  0  0  0  0  0  0  0  0  0  0  0
   10.6048   38.1867   31.6669 C   0  0  0  0  0  0  0  0  0  0  0  0
   12.9346   37.6788   32.0281 C   0  0  0  0  0  0  0  0  0  0  0  0
    9.6378   38.0918   30.6489 O   0  0  0  0  0  0  0  0  0  0  0  0
   11.5761   37.0128   31.7056 C   0  0  0  0  0  0  0  0  0  0  0  0
   13.4909   37.2176   33.3233 N   0  0  0  0  0  0  0  0  0  0  0  0
   11.6233   36.3370   30.4684 O   0  0  0  0  0  0  0  0  0  0  0  0
   14.4765   36.3271   33.5727 C   0  0  0  0  0  0  0  0  0  0  0  0
   13.1182   37.6315   34.5685 C   0  0  0  0  0  0  0  0  0  0  0  0
   15.2066   35.6137   32.6739 N   0  0  0  0  0  0  0  0  0  0  0  0
   14.6736   36.2276   34.9182 C   0  0  0  0  0  0  0  0  0  0  0  0
   13.8227   37.0458   35.5781 N   0  0  0  0  0  0  0  0  0  0  0  0
   16.1638   34.7592   33.1548 C   0  0  0  0  0  0  0  0  0  0  0  0
   15.6517   35.3492   35.4131 C   0  0  0  0  0  0  0  0  0  0  0  0
   16.3793   34.6309   34.5043 N   0  0  0  0  0  0  0  0  0  0  0  0
   15.9002   35.1934   36.8090 N   0  0  0  0  0  0  0  0  0  0  0  0
    9.7874   45.0099   32.1631 H   0  0  0  0  0  0  0  0  0  0  0  0
   11.1428   46.2751   34.4868 H   0  0  0  0  0  0  0  0  0  0  0  0
   10.9051   46.9082   32.9434 H   0  0  0  0  0  0  0  0  0  0  0  0
    8.5443   46.7557   33.5748 H   0  0  0  0  0  0  0  0  0  0  0  0
    8.7857   45.7335   35.0059 H   0  0  0  0  0  0  0  0  0  0  0  0
    8.0876   43.6718   35.8911 H   0  0  0  0  0  0  0  0  0  0  0  0
    6.4426   43.0101   36.0959 H   0  0  0  0  0  0  0  0  0  0  0  0
    8.4218   45.2707   37.6506 H   0  0  0  0  0  0  0  0  0  0  0  0
    4.5902   45.1684   35.6665 H   0  0  0  0  0  0  0  0  0  0  0  0
    7.6697   47.2087   38.9803 H   0  0  0  0  0  0  0  0  0  0  0  0
    3.8572   47.1089   37.0067 H   0  0  0  0  0  0  0  0  0  0  0  0
    5.3925   48.1346   38.6607 H   0  0  0  0  0  0  0  0  0  0  0  0
    9.8252   40.7214   31.7565 H   0  0  0  0  0  0  0  0  0  0  0  0
   11.3886   41.5413   31.4676 H   0  0  0  0  0  0  0  0  0  0  0  0
   11.6988   39.5012   30.3465 H   0  0  0  0  0  0  0  0  0  0  0  0
   10.1097   38.2772   32.6629 H   0  0  0  0  0  0  0  0  0  0  0  0
   13.6673   37.4539   31.2212 H   0  0  0  0  0  0  0  0  0  0  0  0
    8.9778   37.4160   30.9536 H   0  0  0  0  0  0  0  0  0  0  0  0
   11.2860   36.3040   32.5177 H   0  0  0  0  0  0  0  0  0  0  0  0
   10.8688   35.6918   30.4657 H   0  0  0  0  0  0  0  0  0  0  0  0
   12.3355   38.3586   34.7439 H   0  0  0  0  0  0  0  0  0  0  0  0
   16.7572   34.1786   32.4621 H   0  0  0  0  0  0  0  0  0  0  0  0
   15.3530   35.7358   37.5138 H   0  0  0  0  0  0  0  0  0  0  0  0
   16.6361   34.5315   37.1416 H   0  0  0  0  0  0  0  0  0  0  0  0
  1  2  2  0
  1  3  1  0
  3  4  1  0
  4  5  1  0
  6  1  1  0
  7  6  1  0
  6  8  1  0
  8  9  1  0
  9 10  1  0
  9 11  2  0
 10 12  1  0
 12 13  1  0
 13 14  2  0
 15 13  1  0
 14 16  1  0
 17 15  2  0
 16 18  2  0
 18 17  1  0
  4 19  2  0
  4 20  1  0
 21 20  1  0
 21 22  1  0
 22 23  1  0
 22 24  1  0
 23 25  1  0
 24 26  1  0
 24 27  1  0
 27 25  1  0
 25 28  1  0
 27 29  1  0
 30 28  1  0
 31 28  1  0
 32 30  2  0
 30 33  1  0
 34 31  2  0
 35 32  1  0
 33 36  2  0
 33 34  1  0
 37 35  2  0
 37 36  1  0
 36 38  1  0
  6 39  1  6
  7 40  1  0
  7 41  1  0
  8 42  1  0
  8 43  1  0
 12 44  1  0
 12 45  1  0
 14 46  1  0
 15 47  1  0
 16 48  1  0
 17 49  1  0
 18 50  1  0
 21 51  1  0
 21 52  1  0
 22 53  1  0
 24 54  1  0
 25 55  1  0
 26 56  1  0
 27 57  1  0
 29 58  1  0
 31 59  1  0
 35 60  1  0
 38 61  1  0
 38 62  1  0
M  CHG  1   5  -1
M  END
>  <EmbedRMS>  (333) 
0.08918993116926636

$$$$

     RDKit          3D

 62 65  0  0  0  0  0  0  0  0999 V2000
   10.2851   43.7702   33.8128 C   0  0  0  0  0  0  0  0  0  0  0  0
   11.4100   43.5798   34.3616 O   0  0  0  0  0  0  0  0  0  0  0  0
    9.3702   42.7288   33.6954 O   0  0  0  0  0  0  0  0  0  0  0  0
    9.8847   41.2325   34.2835 P   0  0  0  0  0  5  0  0  0  0  0  0
   10.3648   41.4699   35.8740 O   0  0  0  0  0  1  0  0  0  0  0  0
    9.9581   45.1153   33.2586 C   0  0  2  0  0  0  0  0  0  0  0  0
   11.0666   46.0511   33.4671 N   0  0  0  0  0  0  0  0  0  0  0  0
    8.6444   45.6851   33.8370 C   0  0  0  0  0  0  0  0  0  0  0  0
    8.6396   45.7780   35.3473 C   0  0  0  0  0  0  0  0  0  0  0  0
    7.8794   44.9279   36.1626 O   0  0  0  0  0  0  0  0  0  0  0  0
    9.3493   46.6567   35.9036 O   0  0  0  0  0  0  0  0  0  0  0  0
    6.8589   44.0519   35.6937 C   0  0  0  0  0  0  0  0  0  0  0  0
    6.2666   43.3177   36.8602 C   0  0  0  0  0  0  0  0  0  0  0  0
    5.2283   43.8975   37.6075 C   0  0  0  0  0  0  0  0  0  0  0  0
    6.7886   42.0744   37.2546 C   0  0  0  0  0  0  0  0  0  0  0  0
    4.7014   43.2286   38.7170 C   0  0  0  0  0  0  0  0  0  0  0  0
    6.2589   41.4088   38.3645 C   0  0  0  0  0  0  0  0  0  0  0  0
    5.2147   41.9843   39.0938 C   0  0  0  0  0  0  0  0  0  0  0  0
    8.8060   40.1910   34.2085 O   0  0  0  0  0  0  0  0  0  0  0  0
   11.2367   40.7871   33.3690 O   0  0  0  0  0  0  0  0  0  0  0  0
   10.9165   40.6884   31.9954 C   0  0  0  0  0  0  0  0  0  0  0  0
   11.5253   39.3870   31.4362 C   0  0  0  0  0  0  0  0  0  0  0  0
   12.7489   39.0877   32.0799 O   0  0  0  0  0  0  0  0  0  0  0  0
   10.6101   38.1908   31.6470 C   0  0  0  0  0  0  0  0  0  0  0  0
   12.9348   37.6805   32.0291 C   0  0  0  0  0  0  0  0  0  0  0  0
    9.6126   38.0874   30.6547 O   0  0  0  0  0  0  0  0  0  0  0  0
   11.5766   37.0132   31.7025 C   0  0  0  0  0  0  0  0  0  0  0  0
   13.4901   37.2164   33.3236 N   0  0  0  0  0  0  0  0  0  0  0  0
   11.6321   36.3230   30.4741 O   0  0  0  0  0  0  0  0  0  0  0  0
   14.4763   36.3266   33.5728 C   0  0  0  0  0  0  0  0  0  0  0  0
   13.1179   37.6307   34.5688 C   0  0  0  0  0  0  0  0  0  0  0  0
   15.2065   35.6135   32.6739 N   0  0  0  0  0  0  0  0  0  0  0  0
   14.6736   36.2272   34.9182 C   0  0  0  0  0  0  0  0  0  0  0  0
   13.8228   37.0453   35.5783 N   0  0  0  0  0  0  0  0  0  0  0  0
   16.1640   34.7592   33.1547 C   0  0  0  0  0  0  0  0  0  0  0  0
   15.6518   35.3491   35.4131 C   0  0  0  0  0  0  0  0  0  0  0  0
   16.3795   34.6309   34.5042 N   0  0  0  0  0  0  0  0  0  0  0  0
   15.9004   35.1933   36.8089 N   0  0  0  0  0  0  0  0  0  0  0  0
    9.8110   44.9956   32.1623 H   0  0  0  0  0  0  0  0  0  0  0  0
   11.8905   45.7336   32.9053 H   0  0  0  0  0  0  0  0  0  0  0  0
   11.3554   46.0690   34.4721 H   0  0  0  0  0  0  0  0  0  0  0  0
    8.4859   46.7046   33.4233 H   0  0  0  0  0  0  0  0  0  0  0  0
    7.7942   45.0746   33.4715 H   0  0  0  0  0  0  0  0  0  0  0  0
    7.2778   43.3241   34.9702 H   0  0  0  0  0  0  0  0  0  0  0  0
    6.0694   44.6399   35.1766 H   0  0  0  0  0  0  0  0  0  0  0  0
    4.8284   44.8654   37.3316 H   0  0  0  0  0  0  0  0  0  0  0  0
    7.6029   41.6211   36.7037 H   0  0  0  0  0  0  0  0  0  0  0  0
    3.8977   43.6766   39.2869 H   0  0  0  0  0  0  0  0  0  0  0  0
    6.6605   40.4485   38.6612 H   0  0  0  0  0  0  0  0  0  0  0  0
    4.8067   41.4685   39.9535 H   0  0  0  0  0  0  0  0  0  0  0  0
    9.8267   40.7205   31.7571 H   0  0  0  0  0  0  0  0  0  0  0  0
   11.3863   41.5504   31.4752 H   0  0  0  0  0  0  0  0  0  0  0  0
   11.7273   39.5287   30.3499 H   0  0  0  0  0  0  0  0  0  0  0  0
   10.1123   38.2731   32.6390 H   0  0  0  0  0  0  0  0  0  0  0  0
   13.6686   37.4587   31.2224 H   0  0  0  0  0  0  0  0  0  0  0  0
   10.0513   38.1110   29.7647 H   0  0  0  0  0  0  0  0  0  0  0  0
   11.2801   36.3127   32.5195 H   0  0  0  0  0  0  0  0  0  0  0  0
   10.8624   35.6959   30.4645 H   0  0  0  0  0  0  0  0  0  0  0  0
   12.3355   38.3580   34.7444 H   0  0  0  0  0  0  0  0  0  0  0  0
   16.7575   34.1787   32.4620 H   0  0  0  0  0  0  0  0  0  0  0  0
   15.3531   35.7356   37.5138 H   0  0  0  0  0  0  0  0  0  0  0  0
   16.6364   34.5315   37.1415 H   0  0  0  0  0  0  0  0  0  0  0  0
  1  2  2  0
  1  3  1  0
  3  4  1  0
  4  5  1  0
  6  1  1  0
  7  6  1  0
  6  8  1  0
  8  9  1  0
  9 10  1  0
  9 11  2  0
 10 12  1  0
 12 13  1  0
 13 14  2  0
 15 13  1  0
 14 16  1  0
 17 15  2  0
 16 18  2  0
 18 17  1  0
  4 19  2  0
  4 20  1  0
 21 20  1  0
 21 22  1  0
 22 23  1  0
 22 24  1  0
 23 25  1  0
 24 26  1  0
 24 27  1  0
 27 25  1  0
 25 28  1  0
 27 29  1  0
 30 28  1  0
 31 28  1  0
 32 30  2  0
 30 33  1  0
 34 31  2  0
 35 32  1  0
 33 36  2  0
 33 34  1  0
 37 35  2  0
 37 36  1  0
 36 38  1  0
  6 39  1  6
  7 40  1  0
  7 41  1  0
  8 42  1  0
  8 43  1  0
 12 44  1  0
 12 45  1  0
 14 46  1  0
 15 47  1  0
 16 48  1  0
 17 49  1  0
 18 50  1  0
 21 51  1  0
 21 52  1  0
 22 53  1  0
 24 54  1  0
 25 55  1  0
 26 56  1  0
 27 57  1  0
 29 58  1  0
 31 59  1  0
 35 60  1  0
 38 61  1  0
 38 62  1  0
M  CHG  1   5  -1
M  END
>  <EmbedRMS>  (334) 
0.08901240800342869

$$$$

     RDKit          3D

 62 65  0  0  0  0  0  0  0  0999 V2000
   10.2812   43.7754   33.8095 C   0  0  0  0  0  0  0  0  0  0  0  0
   11.4042   43.5915   34.3653 O   0  0  0  0  0  0  0  0  0  0  0  0
    9.3698   42.7292   33.6958 O   0  0  0  0  0  0  0  0  0  0  0  0
    9.8868   41.2336   34.2831 P   0  0  0  0  0  5  0  0  0  0  0  0
   10.3661   41.4703   35.8739 O   0  0  0  0  0  1  0  0  0  0  0  0
    9.9457   45.1217   33.2611 C   0  0  2  0  0  0  0  0  0  0  0  0
   11.0803   46.0237   33.4668 N   0  0  0  0  0  0  0  0  0  0  0  0
    8.6946   45.7027   33.9573 C   0  0  0  0  0  0  0  0  0  0  0  0
    7.4213   45.0365   33.5004 C   0  0  0  0  0  0  0  0  0  0  0  0
    6.7835   45.3644   32.2947 O   0  0  0  0  0  0  0  0  0  0  0  0
    6.9226   44.1265   34.2137 O   0  0  0  0  0  0  0  0  0  0  0  0
    7.1112   46.4828   31.4692 C   0  0  0  0  0  0  0  0  0  0  0  0
    6.6290   47.7670   32.0895 C   0  0  0  0  0  0  0  0  0  0  0  0
    5.2961   47.8872   32.5169 C   0  0  0  0  0  0  0  0  0  0  0  0
    7.4922   48.8695   32.2099 C   0  0  0  0  0  0  0  0  0  0  0  0
    4.8413   49.0846   33.0780 C   0  0  0  0  0  0  0  0  0  0  0  0
    7.0334   50.0649   32.7721 C   0  0  0  0  0  0  0  0  0  0  0  0
    5.7097   50.1718   33.2074 C   0  0  0  0  0  0  0  0  0  0  0  0
    8.8087   40.1912   34.2079 O   0  0  0  0  0  0  0  0  0  0  0  0
   11.2384   40.7889   33.3680 O   0  0  0  0  0  0  0  0  0  0  0  0
   10.9169   40.6887   31.9948 C   0  0  0  0  0  0  0  0  0  0  0  0
   11.5255   39.3870   31.4361 C   0  0  0  0  0  0  0  0  0  0  0  0
   12.7490   39.0877   32.0799 O   0  0  0  0  0  0  0  0  0  0  0  0
   10.6102   38.1909   31.6470 C   0  0  0  0  0  0  0  0  0  0  0  0
   12.9349   37.6805   32.0291 C   0  0  0  0  0  0  0  0  0  0  0  0
    9.6126   38.0874   30.6547 O   0  0  0  0  0  0  0  0  0  0  0  0
   11.5767   37.0132   31.7025 C   0  0  0  0  0  0  0  0  0  0  0  0
   13.4902   37.2164   33.3236 N   0  0  0  0  0  0  0  0  0  0  0  0
   11.6321   36.3230   30.4741 O   0  0  0  0  0  0  0  0  0  0  0  0
   14.4763   36.3265   33.5727 C   0  0  0  0  0  0  0  0  0  0  0  0
   13.1179   37.6307   34.5688 C   0  0  0  0  0  0  0  0  0  0  0  0
   15.2066   35.6135   32.6739 N   0  0  0  0  0  0  0  0  0  0  0  0
   14.6736   36.2272   34.9182 C   0  0  0  0  0  0  0  0  0  0  0  0
   13.8228   37.0453   35.5783 N   0  0  0  0  0  0  0  0  0  0  0  0
   16.1640   34.7592   33.1547 C   0  0  0  0  0  0  0  0  0  0  0  0
   15.6519   35.3491   35.4131 C   0  0  0  0  0  0  0  0  0  0  0  0
   16.3795   34.6309   34.5042 N   0  0  0  0  0  0  0  0  0  0  0  0
   15.9004   35.1933   36.8089 N   0  0  0  0  0  0  0  0  0  0  0  0
    9.7599   45.0166   32.1692 H   0  0  0  0  0  0  0  0  0  0  0  0
   11.8875   45.6752   32.8986 H   0  0  0  0  0  0  0  0  0  0  0  0
   10.8415   46.9563   33.0569 H   0  0  0  0  0  0  0  0  0  0  0  0
    8.6193   46.7906   33.7618 H   0  0  0  0  0  0  0  0  0  0  0  0
    8.7964   45.5969   35.0605 H   0  0  0  0  0  0  0  0  0  0  0  0
    6.6016   46.3575   30.4911 H   0  0  0  0  0  0  0  0  0  0  0  0
    8.2022   46.5079   31.2665 H   0  0  0  0  0  0  0  0  0  0  0  0
    4.6115   47.0540   32.4170 H   0  0  0  0  0  0  0  0  0  0  0  0
    8.5198   48.8030   31.8747 H   0  0  0  0  0  0  0  0  0  0  0  0
    3.8149   49.1702   33.4105 H   0  0  0  0  0  0  0  0  0  0  0  0
    7.7038   50.9091   32.8686 H   0  0  0  0  0  0  0  0  0  0  0  0
    5.3561   51.0980   33.6417 H   0  0  0  0  0  0  0  0  0  0  0  0
    9.8270   40.7207   31.7572 H   0  0  0  0  0  0  0  0  0  0  0  0
   11.3861   41.5504   31.4734 H   0  0  0  0  0  0  0  0  0  0  0  0
   11.7276   39.5283   30.3497 H   0  0  0  0  0  0  0  0  0  0  0  0
   10.1125   38.2734   32.6390 H   0  0  0  0  0  0  0  0  0  0  0  0
   13.6686   37.4586   31.2224 H   0  0  0  0  0  0  0  0  0  0  0  0
   10.0513   38.1110   29.7648 H   0  0  0  0  0  0  0  0  0  0  0  0
   11.2800   36.3128   32.5195 H   0  0  0  0  0  0  0  0  0  0  0  0
   10.8623   35.6960   30.4645 H   0  0  0  0  0  0  0  0  0  0  0  0
   12.3356   38.3580   34.7444 H   0  0  0  0  0  0  0  0  0  0  0  0
   16.7575   34.1787   32.4620 H   0  0  0  0  0  0  0  0  0  0  0  0
   16.6364   34.5315   37.1415 H   0  0  0  0  0  0  0  0  0  0  0  0
   15.3531   35.7356   37.5138 H   0  0  0  0  0  0  0  0  0  0  0  0
  1  2  2  0
  1  3  1  0
  3  4  1  0
  4  5  1  0
  6  1  1  0
  7  6  1  0
  6  8  1  0
  8  9  1  0
  9 10  1  0
  9 11  2  0
 10 12  1  0
 12 13  1  0
 13 14  2  0
 15 13  1  0
 14 16  1  0
 17 15  2  0
 16 18  2  0
 18 17  1  0
  4 19  2  0
  4 20  1  0
 21 20  1  0
 21 22  1  0
 22 23  1  0
 22 24  1  0
 23 25  1  0
 24 26  1  0
 24 27  1  0
 27 25  1  0
 25 28  1  0
 27 29  1  0
 30 28  1  0
 31 28  1  0
 32 30  2  0
 30 33  1  0
 34 31  2  0
 35 32  1  0
 33 36  2  0
 33 34  1  0
 37 35  2  0
 37 36  1  0
 36 38  1  0
  6 39  1  6
  7 40  1  0
  7 41  1  0
  8 42  1  0
  8 43  1  0
 12 44  1  0
 12 45  1  0
 14 46  1  0
 15 47  1  0
 16 48  1  0
 17 49  1  0
 18 50  1  0
 21 51  1  0
 21 52  1  0
 22 53  1  0
 24 54  1  0
 25 55  1  0
 26 56  1  0
 27 57  1  0
 29 58  1  0
 31 59  1  0
 35 60  1  0
 38 61  1  0
 38 62  1  0
M  CHG  1   5  -1
M  END
>  <EmbedRMS>  (335) 
0.08851080287263102

$$$$

     RDKit          3D

 62 65  0  0  0  0  0  0  0  0999 V2000
   10.2848   43.7726   33.8068 C   0  0  0  0  0  0  0  0  0  0  0  0
   11.4104   43.5874   34.3562 O   0  0  0  0  0  0  0  0  0  0  0  0
    9.3662   42.7315   33.7017 O   0  0  0  0  0  0  0  0  0  0  0  0
    9.8848   41.2345   34.2850 P   0  0  0  0  0  5  0  0  0  0  0  0
   10.3657   41.4698   35.8753 O   0  0  0  0  0  1  0  0  0  0  0  0
    9.9581   45.1109   33.2442 C   0  0  2  0  0  0  0  0  0  0  0  0
   11.0677   46.0365   33.4845 N   0  0  0  0  0  0  0  0  0  0  0  0
    8.6202   45.6585   33.7911 C   0  0  0  0  0  0  0  0  0  0  0  0
    8.6129   45.8099   35.2837 C   0  0  0  0  0  0  0  0  0  0  0  0
    8.9623   47.0398   35.8525 O   0  0  0  0  0  0  0  0  0  0  0  0
    8.3209   44.8223   36.0121 O   0  0  0  0  0  0  0  0  0  0  0  0
    8.9821   47.2740   37.2588 C   0  0  0  0  0  0  0  0  0  0  0  0
    7.5804   47.3297   37.8020 C   0  0  0  0  0  0  0  0  0  0  0  0
    7.0981   46.3155   38.6464 C   0  0  0  0  0  0  0  0  0  0  0  0
    6.7316   48.3894   37.4433 C   0  0  0  0  0  0  0  0  0  0  0  0
    5.7870   46.3675   39.1303 C   0  0  0  0  0  0  0  0  0  0  0  0
    5.4214   48.4377   37.9296 C   0  0  0  0  0  0  0  0  0  0  0  0
    4.9496   47.4279   38.7729 C   0  0  0  0  0  0  0  0  0  0  0  0
    8.8076   40.1913   34.2091 O   0  0  0  0  0  0  0  0  0  0  0  0
   11.2366   40.7909   33.3690 O   0  0  0  0  0  0  0  0  0  0  0  0
   10.9151   40.6898   31.9961 C   0  0  0  0  0  0  0  0  0  0  0  0
   11.5268   39.3899   31.4375 C   0  0  0  0  0  0  0  0  0  0  0  0
   12.7506   39.0917   32.0840 O   0  0  0  0  0  0  0  0  0  0  0  0
   10.6121   38.1915   31.6452 C   0  0  0  0  0  0  0  0  0  0  0  0
   12.9429   37.6854   32.0295 C   0  0  0  0  0  0  0  0  0  0  0  0
    9.6070   38.0858   30.6603 O   0  0  0  0  0  0  0  0  0  0  0  0
   11.5845   37.0186   31.6879 C   0  0  0  0  0  0  0  0  0  0  0  0
   13.4899   37.2164   33.3250 N   0  0  0  0  0  0  0  0  0  0  0  0
   11.6202   36.3063   30.4693 O   0  0  0  0  0  0  0  0  0  0  0  0
   14.4759   36.3263   33.5738 C   0  0  0  0  0  0  0  0  0  0  0  0
   13.1175   37.6307   34.5699 C   0  0  0  0  0  0  0  0  0  0  0  0
   15.2065   35.6139   32.6746 N   0  0  0  0  0  0  0  0  0  0  0  0
   14.6731   36.2267   34.9191 C   0  0  0  0  0  0  0  0  0  0  0  0
   13.8224   37.0450   35.5792 N   0  0  0  0  0  0  0  0  0  0  0  0
   16.1640   34.7596   33.1551 C   0  0  0  0  0  0  0  0  0  0  0  0
   15.6517   35.3489   35.4136 C   0  0  0  0  0  0  0  0  0  0  0  0
   16.3795   34.6310   34.5046 N   0  0  0  0  0  0  0  0  0  0  0  0
   15.9006   35.1931   36.8094 N   0  0  0  0  0  0  0  0  0  0  0  0
    9.8477   44.9839   32.1449 H   0  0  0  0  0  0  0  0  0  0  0  0
   10.8537   46.9456   33.0133 H   0  0  0  0  0  0  0  0  0  0  0  0
   11.1608   46.2303   34.5081 H   0  0  0  0  0  0  0  0  0  0  0  0
    7.7916   44.9805   33.4904 H   0  0  0  0  0  0  0  0  0  0  0  0
    8.4109   46.6463   33.3270 H   0  0  0  0  0  0  0  0  0  0  0  0
    9.5874   46.4900   37.7647 H   0  0  0  0  0  0  0  0  0  0  0  0
    9.4807   48.2478   37.4492 H   0  0  0  0  0  0  0  0  0  0  0  0
    7.7336   45.4851   38.9279 H   0  0  0  0  0  0  0  0  0  0  0  0
    7.0849   49.1749   36.7867 H   0  0  0  0  0  0  0  0  0  0  0  0
    5.4196   45.5846   39.7811 H   0  0  0  0  0  0  0  0  0  0  0  0
    4.7712   49.2570   37.6512 H   0  0  0  0  0  0  0  0  0  0  0  0
    3.9350   47.4662   39.1479 H   0  0  0  0  0  0  0  0  0  0  0  0
    9.8249   40.7189   31.7591 H   0  0  0  0  0  0  0  0  0  0  0  0
   11.3818   41.5527   31.4745 H   0  0  0  0  0  0  0  0  0  0  0  0
   11.7317   39.5339   30.3522 H   0  0  0  0  0  0  0  0  0  0  0  0
   10.1213   38.2681   32.6413 H   0  0  0  0  0  0  0  0  0  0  0  0
   13.6882   37.4710   31.2319 H   0  0  0  0  0  0  0  0  0  0  0  0
   10.0257   38.1751   29.7656 H   0  0  0  0  0  0  0  0  0  0  0  0
   11.2796   36.3123   32.4915 H   0  0  0  0  0  0  0  0  0  0  0  0
   11.9872   36.9100   29.7715 H   0  0  0  0  0  0  0  0  0  0  0  0
   12.3365   38.3596   34.7454 H   0  0  0  0  0  0  0  0  0  0  0  0
   16.7576   34.1794   32.4622 H   0  0  0  0  0  0  0  0  0  0  0  0
   16.6368   34.5316   37.1418 H   0  0  0  0  0  0  0  0  0  0  0  0
   15.3532   35.7351   37.5143 H   0  0  0  0  0  0  0  0  0  0  0  0
  1  2  2  0
  1  3  1  0
  3  4  1  0
  4  5  1  0
  6  1  1  0
  7  6  1  0
  6  8  1  0
  8  9  1  0
  9 10  1  0
  9 11  2  0
 10 12  1  0
 12 13  1  0
 13 14  2  0
 15 13  1  0
 14 16  1  0
 17 15  2  0
 16 18  2  0
 18 17  1  0
  4 19  2  0
  4 20  1  0
 21 20  1  0
 21 22  1  0
 22 23  1  0
 22 24  1  0
 23 25  1  0
 24 26  1  0
 24 27  1  0
 27 25  1  0
 25 28  1  0
 27 29  1  0
 30 28  1  0
 31 28  1  0
 32 30  2  0
 30 33  1  0
 34 31  2  0
 35 32  1  0
 33 36  2  0
 33 34  1  0
 37 35  2  0
 37 36  1  0
 36 38  1  0
  6 39  1  6
  7 40  1  0
  7 41  1  0
  8 42  1  0
  8 43  1  0
 12 44  1  0
 12 45  1  0
 14 46  1  0
 15 47  1  0
 16 48  1  0
 17 49  1  0
 18 50  1  0
 21 51  1  0
 21 52  1  0
 22 53  1  0
 24 54  1  0
 25 55  1  0
 26 56  1  0
 27 57  1  0
 29 58  1  0
 31 59  1  0
 35 60  1  0
 38 61  1  0
 38 62  1  0
M  CHG  1   5  -1
M  END
>  <EmbedRMS>  (336) 
0.08687043378285983

$$$$

     RDKit          3D

 62 65  0  0  0  0  0  0  0  0999 V2000
   10.2842   43.7736   33.8096 C   0  0  0  0  0  0  0  0  0  0  0  0
   11.4072   43.5898   34.3647 O   0  0  0  0  0  0  0  0  0  0  0  0
    9.3709   42.7296   33.6929 O   0  0  0  0  0  0  0  0  0  0  0  0
    9.8856   41.2343   34.2831 P   0  0  0  0  0  5  0  0  0  0  0  0
   10.3641   41.4721   35.8739 O   0  0  0  0  0  1  0  0  0  0  0  0
    9.9459   45.1187   33.2699 C   0  0  2  0  0  0  0  0  0  0  0  0
   11.0765   46.0288   33.4620 N   0  0  0  0  0  0  0  0  0  0  0  0
    8.6728   45.6781   33.9422 C   0  0  0  0  0  0  0  0  0  0  0  0
    8.8495   45.9212   35.4250 C   0  0  0  0  0  0  0  0  0  0  0  0
    8.2483   45.1283   36.4149 O   0  0  0  0  0  0  0  0  0  0  0  0
    9.5831   46.8756   35.7949 O   0  0  0  0  0  0  0  0  0  0  0  0
    7.2617   44.1217   36.1896 C   0  0  0  0  0  0  0  0  0  0  0  0
    5.9500   44.7332   35.7741 C   0  0  0  0  0  0  0  0  0  0  0  0
    5.3926   45.7846   36.5209 C   0  0  0  0  0  0  0  0  0  0  0  0
    5.2491   44.2305   34.6648 C   0  0  0  0  0  0  0  0  0  0  0  0
    4.1656   46.3413   36.1469 C   0  0  0  0  0  0  0  0  0  0  0  0
    4.0225   44.7903   34.2940 C   0  0  0  0  0  0  0  0  0  0  0  0
    3.4822   45.8462   35.0330 C   0  0  0  0  0  0  0  0  0  0  0  0
    8.8072   40.1922   34.2079 O   0  0  0  0  0  0  0  0  0  0  0  0
   11.2373   40.7885   33.3692 O   0  0  0  0  0  0  0  0  0  0  0  0
   10.9165   40.6894   31.9959 C   0  0  0  0  0  0  0  0  0  0  0  0
   11.5274   39.3896   31.4370 C   0  0  0  0  0  0  0  0  0  0  0  0
   12.7511   39.0913   32.0834 O   0  0  0  0  0  0  0  0  0  0  0  0
   10.6123   38.1916   31.6451 C   0  0  0  0  0  0  0  0  0  0  0  0
   12.9430   37.6850   32.0294 C   0  0  0  0  0  0  0  0  0  0  0  0
    9.6070   38.0858   30.6603 O   0  0  0  0  0  0  0  0  0  0  0  0
   11.5845   37.0185   31.6879 C   0  0  0  0  0  0  0  0  0  0  0  0
   13.4899   37.2162   33.3250 N   0  0  0  0  0  0  0  0  0  0  0  0
   11.6200   36.3061   30.4692 O   0  0  0  0  0  0  0  0  0  0  0  0
   14.4759   36.3263   33.5739 C   0  0  0  0  0  0  0  0  0  0  0  0
   13.1175   37.6307   34.5698 C   0  0  0  0  0  0  0  0  0  0  0  0
   15.2065   35.6138   32.6746 N   0  0  0  0  0  0  0  0  0  0  0  0
   14.6731   36.2267   34.9191 C   0  0  0  0  0  0  0  0  0  0  0  0
   13.8224   37.0450   35.5792 N   0  0  0  0  0  0  0  0  0  0  0  0
   16.1640   34.7595   33.1551 C   0  0  0  0  0  0  0  0  0  0  0  0
   15.6518   35.3489   35.4136 C   0  0  0  0  0  0  0  0  0  0  0  0
   16.3795   34.6310   34.5046 N   0  0  0  0  0  0  0  0  0  0  0  0
   15.9006   35.1931   36.8094 N   0  0  0  0  0  0  0  0  0  0  0  0
    9.7456   45.0110   32.1799 H   0  0  0  0  0  0  0  0  0  0  0  0
   10.8144   46.9661   33.0781 H   0  0  0  0  0  0  0  0  0  0  0  0
   11.8723   45.6970   32.8685 H   0  0  0  0  0  0  0  0  0  0  0  0
    8.4074   46.6441   33.4607 H   0  0  0  0  0  0  0  0  0  0  0  0
    7.8242   44.9972   33.7381 H   0  0  0  0  0  0  0  0  0  0  0  0
    7.1017   43.5700   37.1393 H   0  0  0  0  0  0  0  0  0  0  0  0
    7.6291   43.3850   35.4473 H   0  0  0  0  0  0  0  0  0  0  0  0
    5.9090   46.1734   37.3899 H   0  0  0  0  0  0  0  0  0  0  0  0
    5.6528   43.4098   34.0847 H   0  0  0  0  0  0  0  0  0  0  0  0
    3.7434   47.1551   36.7222 H   0  0  0  0  0  0  0  0  0  0  0  0
    3.4897   44.4040   33.4347 H   0  0  0  0  0  0  0  0  0  0  0  0
    2.5323   46.2778   34.7451 H   0  0  0  0  0  0  0  0  0  0  0  0
   11.3845   41.5523   31.4755 H   0  0  0  0  0  0  0  0  0  0  0  0
    9.8266   40.7194   31.7579 H   0  0  0  0  0  0  0  0  0  0  0  0
   11.7321   39.5336   30.3516 H   0  0  0  0  0  0  0  0  0  0  0  0
   10.1217   38.2684   32.6412 H   0  0  0  0  0  0  0  0  0  0  0  0
   13.6883   37.4702   31.2318 H   0  0  0  0  0  0  0  0  0  0  0  0
   10.0256   38.1751   29.7656 H   0  0  0  0  0  0  0  0  0  0  0  0
   11.2795   36.3123   32.4915 H   0  0  0  0  0  0  0  0  0  0  0  0
   11.9871   36.9098   29.7714 H   0  0  0  0  0  0  0  0  0  0  0  0
   12.3365   38.3595   34.7452 H   0  0  0  0  0  0  0  0  0  0  0  0
   16.7577   34.1794   32.4623 H   0  0  0  0  0  0  0  0  0  0  0  0
   15.3532   35.7351   37.5144 H   0  0  0  0  0  0  0  0  0  0  0  0
   16.6368   34.5316   37.1418 H   0  0  0  0  0  0  0  0  0  0  0  0
  1  2  2  0
  1  3  1  0
  3  4  1  0
  4  5  1  0
  6  1  1  0
  7  6  1  0
  6  8  1  0
  8  9  1  0
  9 10  1  0
  9 11  2  0
 10 12  1  0
 12 13  1  0
 13 14  2  0
 15 13  1  0
 14 16  1  0
 17 15  2  0
 16 18  2  0
 18 17  1  0
  4 19  2  0
  4 20  1  0
 21 20  1  0
 21 22  1  0
 22 23  1  0
 22 24  1  0
 23 25  1  0
 24 26  1  0
 24 27  1  0
 27 25  1  0
 25 28  1  0
 27 29  1  0
 30 28  1  0
 31 28  1  0
 32 30  2  0
 30 33  1  0
 34 31  2  0
 35 32  1  0
 33 36  2  0
 33 34  1  0
 37 35  2  0
 37 36  1  0
 36 38  1  0
  6 39  1  6
  7 40  1  0
  7 41  1  0
  8 42  1  0
  8 43  1  0
 12 44  1  0
 12 45  1  0
 14 46  1  0
 15 47  1  0
 16 48  1  0
 17 49  1  0
 18 50  1  0
 21 51  1  0
 21 52  1  0
 22 53  1  0
 24 54  1  0
 25 55  1  0
 26 56  1  0
 27 57  1  0
 29 58  1  0
 31 59  1  0
 35 60  1  0
 38 61  1  0
 38 62  1  0
M  CHG  1   5  -1
M  END
>  <EmbedRMS>  (337) 
0.08746758796417804

$$$$

     RDKit          3D

 62 65  0  0  0  0  0  0  0  0999 V2000
   10.2859   43.7720   33.8048 C   0  0  0  0  0  0  0  0  0  0  0  0
   11.4085   43.5886   34.3612 O   0  0  0  0  0  0  0  0  0  0  0  0
    9.3675   42.7309   33.6994 O   0  0  0  0  0  0  0  0  0  0  0  0
    9.8855   41.2341   34.2843 P   0  0  0  0  0  5  0  0  0  0  0  0
   10.3651   41.4701   35.8750 O   0  0  0  0  0  1  0  0  0  0  0  0
    9.9529   45.1148   33.2533 C   0  0  2  0  0  0  0  0  0  0  0  0
   11.0715   46.0331   33.4764 N   0  0  0  0  0  0  0  0  0  0  0  0
    8.6601   45.6658   33.8889 C   0  0  0  0  0  0  0  0  0  0  0  0
    8.7925   45.8612   35.3703 C   0  0  0  0  0  0  0  0  0  0  0  0
    9.4237   47.0086   35.8577 O   0  0  0  0  0  0  0  0  0  0  0  0
    8.3694   44.9740   36.1609 O   0  0  0  0  0  0  0  0  0  0  0  0
    9.6372   47.2373   37.2456 C   0  0  0  0  0  0  0  0  0  0  0  0
   10.3747   48.5315   37.4236 C   0  0  0  0  0  0  0  0  0  0  0  0
    9.6694   49.7300   37.6219 C   0  0  0  0  0  0  0  0  0  0  0  0
   11.7754   48.5645   37.3235 C   0  0  0  0  0  0  0  0  0  0  0  0
   10.3595   50.9399   37.7480 C   0  0  0  0  0  0  0  0  0  0  0  0
   12.4616   49.7765   37.4499 C   0  0  0  0  0  0  0  0  0  0  0  0
   11.7545   50.9628   37.6645 C   0  0  0  0  0  0  0  0  0  0  0  0
    8.8081   40.1911   34.2080 O   0  0  0  0  0  0  0  0  0  0  0  0
   11.2382   40.7905   33.3697 O   0  0  0  0  0  0  0  0  0  0  0  0
   10.9190   40.6905   31.9962 C   0  0  0  0  0  0  0  0  0  0  0  0
   11.5176   39.3824   31.4412 C   0  0  0  0  0  0  0  0  0  0  0  0
   12.7495   39.0892   32.0755 O   0  0  0  0  0  0  0  0  0  0  0  0
   10.6036   38.1899   31.6659 C   0  0  0  0  0  0  0  0  0  0  0  0
   12.9401   37.6833   32.0276 C   0  0  0  0  0  0  0  0  0  0  0  0
    9.6377   38.0785   30.6474 O   0  0  0  0  0  0  0  0  0  0  0  0
   11.5804   37.0203   31.6937 C   0  0  0  0  0  0  0  0  0  0  0  0
   13.4902   37.2177   33.3237 N   0  0  0  0  0  0  0  0  0  0  0  0
   11.6118   36.3193   30.4680 O   0  0  0  0  0  0  0  0  0  0  0  0
   14.4759   36.3271   33.5731 C   0  0  0  0  0  0  0  0  0  0  0  0
   13.1176   37.6317   34.5688 C   0  0  0  0  0  0  0  0  0  0  0  0
   15.2064   35.6141   32.6742 N   0  0  0  0  0  0  0  0  0  0  0  0
   14.6729   36.2274   34.9184 C   0  0  0  0  0  0  0  0  0  0  0  0
   13.8221   37.0457   35.5783 N   0  0  0  0  0  0  0  0  0  0  0  0
   16.1637   34.7597   33.1549 C   0  0  0  0  0  0  0  0  0  0  0  0
   15.6514   35.3493   35.4133 C   0  0  0  0  0  0  0  0  0  0  0  0
   16.3791   34.6312   34.5044 N   0  0  0  0  0  0  0  0  0  0  0  0
   15.9001   35.1935   36.8091 N   0  0  0  0  0  0  0  0  0  0  0  0
    9.7833   45.0052   32.1585 H   0  0  0  0  0  0  0  0  0  0  0  0
   10.8103   46.9719   33.0958 H   0  0  0  0  0  0  0  0  0  0  0  0
   11.8826   45.7126   32.8977 H   0  0  0  0  0  0  0  0  0  0  0  0
    8.4060   46.6411   33.4208 H   0  0  0  0  0  0  0  0  0  0  0  0
    7.8132   44.9765   33.6768 H   0  0  0  0  0  0  0  0  0  0  0  0
   10.2311   46.4014   37.6765 H   0  0  0  0  0  0  0  0  0  0  0  0
    8.6595   47.2726   37.7744 H   0  0  0  0  0  0  0  0  0  0  0  0
    8.5878   49.7277   37.6781 H   0  0  0  0  0  0  0  0  0  0  0  0
   12.3340   47.6536   37.1466 H   0  0  0  0  0  0  0  0  0  0  0  0
    9.8124   51.8603   37.9063 H   0  0  0  0  0  0  0  0  0  0  0  0
   13.5414   49.7965   37.3774 H   0  0  0  0  0  0  0  0  0  0  0  0
   12.2869   51.9002   37.7607 H   0  0  0  0  0  0  0  0  0  0  0  0
    9.8311   40.7397   31.7560 H   0  0  0  0  0  0  0  0  0  0  0  0
   11.4000   41.5454   31.4746 H   0  0  0  0  0  0  0  0  0  0  0  0
   11.6990   39.5091   30.3489 H   0  0  0  0  0  0  0  0  0  0  0  0
   10.1131   38.2589   32.6664 H   0  0  0  0  0  0  0  0  0  0  0  0
   13.6800   37.4627   31.2265 H   0  0  0  0  0  0  0  0  0  0  0  0
    8.8953   38.6909   30.8891 H   0  0  0  0  0  0  0  0  0  0  0  0
   11.2830   36.3060   32.4929 H   0  0  0  0  0  0  0  0  0  0  0  0
   11.8859   36.9589   29.7593 H   0  0  0  0  0  0  0  0  0  0  0  0
   12.3360   38.3600   34.7441 H   0  0  0  0  0  0  0  0  0  0  0  0
   16.7572   34.1793   32.4621 H   0  0  0  0  0  0  0  0  0  0  0  0
   16.6362   34.5318   37.1416 H   0  0  0  0  0  0  0  0  0  0  0  0
   15.3528   35.7357   37.5140 H   0  0  0  0  0  0  0  0  0  0  0  0
  1  2  2  0
  1  3  1  0
  3  4  1  0
  4  5  1  0
  6  1  1  0
  7  6  1  0
  6  8  1  0
  8  9  1  0
  9 10  1  0
  9 11  2  0
 10 12  1  0
 12 13  1  0
 13 14  2  0
 15 13  1  0
 14 16  1  0
 17 15  2  0
 16 18  2  0
 18 17  1  0
  4 19  2  0
  4 20  1  0
 21 20  1  0
 21 22  1  0
 22 23  1  0
 22 24  1  0
 23 25  1  0
 24 26  1  0
 24 27  1  0
 27 25  1  0
 25 28  1  0
 27 29  1  0
 30 28  1  0
 31 28  1  0
 32 30  2  0
 30 33  1  0
 34 31  2  0
 35 32  1  0
 33 36  2  0
 33 34  1  0
 37 35  2  0
 37 36  1  0
 36 38  1  0
  6 39  1  6
  7 40  1  0
  7 41  1  0
  8 42  1  0
  8 43  1  0
 12 44  1  0
 12 45  1  0
 14 46  1  0
 15 47  1  0
 16 48  1  0
 17 49  1  0
 18 50  1  0
 21 51  1  0
 21 52  1  0
 22 53  1  0
 24 54  1  0
 25 55  1  0
 26 56  1  0
 27 57  1  0
 29 58  1  0
 31 59  1  0
 35 60  1  0
 38 61  1  0
 38 62  1  0
M  CHG  1   5  -1
M  END
>  <EmbedRMS>  (338) 
0.08833088128829283

$$$$

     RDKit          3D

 62 65  0  0  0  0  0  0  0  0999 V2000
   10.2873   43.7698   33.8109 C   0  0  0  0  0  0  0  0  0  0  0  0
   11.4122   43.5799   34.3595 O   0  0  0  0  0  0  0  0  0  0  0  0
    9.3665   42.7312   33.7043 O   0  0  0  0  0  0  0  0  0  0  0  0
    9.8837   41.2328   34.2850 P   0  0  0  0  0  5  0  0  0  0  0  0
   10.3639   41.4648   35.8755 O   0  0  0  0  0  1  0  0  0  0  0  0
    9.9639   45.1111   33.2456 C   0  0  2  0  0  0  0  0  0  0  0  0
   11.0622   46.0545   33.4741 N   0  0  0  0  0  0  0  0  0  0  0  0
    8.6394   45.6683   33.8041 C   0  0  0  0  0  0  0  0  0  0  0  0
    8.7094   45.9644   35.2729 C   0  0  0  0  0  0  0  0  0  0  0  0
    8.7572   44.9082   36.1898 O   0  0  0  0  0  0  0  0  0  0  0  0
    8.7542   47.1617   35.6672 O   0  0  0  0  0  0  0  0  0  0  0  0
    9.0014   45.0936   37.5820 C   0  0  0  0  0  0  0  0  0  0  0  0
   10.4277   45.5172   37.8078 C   0  0  0  0  0  0  0  0  0  0  0  0
   10.7329   46.8375   38.1788 C   0  0  0  0  0  0  0  0  0  0  0  0
   11.4720   44.6030   37.5962 C   0  0  0  0  0  0  0  0  0  0  0  0
   12.0645   47.2324   38.3425 C   0  0  0  0  0  0  0  0  0  0  0  0
   12.8020   45.0018   37.7594 C   0  0  0  0  0  0  0  0  0  0  0  0
   13.0982   46.3155   38.1328 C   0  0  0  0  0  0  0  0  0  0  0  0
    8.8062   40.1903   34.2075 O   0  0  0  0  0  0  0  0  0  0  0  0
   11.2361   40.7904   33.3692 O   0  0  0  0  0  0  0  0  0  0  0  0
   10.9151   40.6898   31.9961 C   0  0  0  0  0  0  0  0  0  0  0  0
   11.5268   39.3899   31.4375 C   0  0  0  0  0  0  0  0  0  0  0  0
   12.7506   39.0918   32.0840 O   0  0  0  0  0  0  0  0  0  0  0  0
   10.6121   38.1916   31.6452 C   0  0  0  0  0  0  0  0  0  0  0  0
   12.9429   37.6854   32.0296 C   0  0  0  0  0  0  0  0  0  0  0  0
    9.6070   38.0858   30.6603 O   0  0  0  0  0  0  0  0  0  0  0  0
   11.5845   37.0186   31.6880 C   0  0  0  0  0  0  0  0  0  0  0  0
   13.4899   37.2164   33.3250 N   0  0  0  0  0  0  0  0  0  0  0  0
   11.6202   36.3063   30.4693 O   0  0  0  0  0  0  0  0  0  0  0  0
   14.4758   36.3264   33.5739 C   0  0  0  0  0  0  0  0  0  0  0  0
   13.1176   37.6308   34.5699 C   0  0  0  0  0  0  0  0  0  0  0  0
   15.2065   35.6139   32.6746 N   0  0  0  0  0  0  0  0  0  0  0  0
   14.6731   36.2267   34.9191 C   0  0  0  0  0  0  0  0  0  0  0  0
   13.8224   37.0450   35.5792 N   0  0  0  0  0  0  0  0  0  0  0  0
   16.1640   34.7596   33.1551 C   0  0  0  0  0  0  0  0  0  0  0  0
   15.6517   35.3489   35.4136 C   0  0  0  0  0  0  0  0  0  0  0  0
   16.3795   34.6310   34.5046 N   0  0  0  0  0  0  0  0  0  0  0  0
   15.9006   35.1931   36.8094 N   0  0  0  0  0  0  0  0  0  0  0  0
    9.8355   44.9853   32.1480 H   0  0  0  0  0  0  0  0  0  0  0  0
   11.9101   45.7265   32.9556 H   0  0  0  0  0  0  0  0  0  0  0  0
   11.3036   46.0995   34.4918 H   0  0  0  0  0  0  0  0  0  0  0  0
    8.3805   46.5986   33.2522 H   0  0  0  0  0  0  0  0  0  0  0  0
    7.8169   44.9435   33.6215 H   0  0  0  0  0  0  0  0  0  0  0  0
    8.2842   45.8346   37.9983 H   0  0  0  0  0  0  0  0  0  0  0  0
    8.8219   44.1308   38.1054 H   0  0  0  0  0  0  0  0  0  0  0  0
    9.9431   47.5614   38.3355 H   0  0  0  0  0  0  0  0  0  0  0  0
   11.2556   43.5847   37.3018 H   0  0  0  0  0  0  0  0  0  0  0  0
   12.2951   48.2505   38.6282 H   0  0  0  0  0  0  0  0  0  0  0  0
   13.6030   44.2930   37.5937 H   0  0  0  0  0  0  0  0  0  0  0  0
   14.1283   46.6233   38.2577 H   0  0  0  0  0  0  0  0  0  0  0  0
   11.3822   41.5528   31.4750 H   0  0  0  0  0  0  0  0  0  0  0  0
    9.8250   40.7193   31.7587 H   0  0  0  0  0  0  0  0  0  0  0  0
   11.7317   39.5340   30.3522 H   0  0  0  0  0  0  0  0  0  0  0  0
   10.1213   38.2681   32.6413 H   0  0  0  0  0  0  0  0  0  0  0  0
   13.6882   37.4710   31.2319 H   0  0  0  0  0  0  0  0  0  0  0  0
   10.0257   38.1752   29.7656 H   0  0  0  0  0  0  0  0  0  0  0  0
   11.2796   36.3124   32.4915 H   0  0  0  0  0  0  0  0  0  0  0  0
   11.9872   36.9100   29.7715 H   0  0  0  0  0  0  0  0  0  0  0  0
   12.3366   38.3597   34.7454 H   0  0  0  0  0  0  0  0  0  0  0  0
   16.7576   34.1795   32.4622 H   0  0  0  0  0  0  0  0  0  0  0  0
   15.3532   35.7351   37.5143 H   0  0  0  0  0  0  0  0  0  0  0  0
   16.6368   34.5316   37.1418 H   0  0  0  0  0  0  0  0  0  0  0  0
  1  2  2  0
  1  3  1  0
  3  4  1  0
  4  5  1  0
  6  1  1  0
  7  6  1  0
  6  8  1  0
  8  9  1  0
  9 10  1  0
  9 11  2  0
 10 12  1  0
 12 13  1  0
 13 14  2  0
 15 13  1  0
 14 16  1  0
 17 15  2  0
 16 18  2  0
 18 17  1  0
  4 19  2  0
  4 20  1  0
 21 20  1  0
 21 22  1  0
 22 23  1  0
 22 24  1  0
 23 25  1  0
 24 26  1  0
 24 27  1  0
 27 25  1  0
 25 28  1  0
 27 29  1  0
 30 28  1  0
 31 28  1  0
 32 30  2  0
 30 33  1  0
 34 31  2  0
 35 32  1  0
 33 36  2  0
 33 34  1  0
 37 35  2  0
 37 36  1  0
 36 38  1  0
  6 39  1  6
  7 40  1  0
  7 41  1  0
  8 42  1  0
  8 43  1  0
 12 44  1  0
 12 45  1  0
 14 46  1  0
 15 47  1  0
 16 48  1  0
 17 49  1  0
 18 50  1  0
 21 51  1  0
 21 52  1  0
 22 53  1  0
 24 54  1  0
 25 55  1  0
 26 56  1  0
 27 57  1  0
 29 58  1  0
 31 59  1  0
 35 60  1  0
 38 61  1  0
 38 62  1  0
M  CHG  1   5  -1
M  END
>  <EmbedRMS>  (339) 
0.08789624558427606

$$$$

     RDKit          3D

 62 65  0  0  0  0  0  0  0  0999 V2000
   10.2859   43.7720   33.8046 C   0  0  0  0  0  0  0  0  0  0  0  0
   11.4085   43.5885   34.3611 O   0  0  0  0  0  0  0  0  0  0  0  0
    9.3674   42.7309   33.6992 O   0  0  0  0  0  0  0  0  0  0  0  0
    9.8853   41.2341   34.2839 P   0  0  0  0  0  5  0  0  0  0  0  0
   10.3659   41.4701   35.8743 O   0  0  0  0  0  1  0  0  0  0  0  0
    9.9528   45.1149   33.2537 C   0  0  2  0  0  0  0  0  0  0  0  0
   11.0716   46.0330   33.4764 N   0  0  0  0  0  0  0  0  0  0  0  0
    8.6604   45.6659   33.8902 C   0  0  0  0  0  0  0  0  0  0  0  0
    8.7930   45.8585   35.3720 C   0  0  0  0  0  0  0  0  0  0  0  0
    9.4295   47.0019   35.8616 O   0  0  0  0  0  0  0  0  0  0  0  0
    8.3650   44.9720   36.1609 O   0  0  0  0  0  0  0  0  0  0  0  0
    9.6437   47.2270   37.2501 C   0  0  0  0  0  0  0  0  0  0  0  0
   10.3884   48.5167   37.4307 C   0  0  0  0  0  0  0  0  0  0  0  0
    9.6898   49.7186   37.6317 C   0  0  0  0  0  0  0  0  0  0  0  0
   11.7892   48.5421   37.3305 C   0  0  0  0  0  0  0  0  0  0  0  0
   10.3866   50.9244   37.7605 C   0  0  0  0  0  0  0  0  0  0  0  0
   12.4823   49.7499   37.4596 C   0  0  0  0  0  0  0  0  0  0  0  0
   11.7818   50.9397   37.6770 C   0  0  0  0  0  0  0  0  0  0  0  0
    8.8077   40.1913   34.2086 O   0  0  0  0  0  0  0  0  0  0  0  0
   11.2370   40.7898   33.3680 O   0  0  0  0  0  0  0  0  0  0  0  0
   10.9154   40.6881   31.9949 C   0  0  0  0  0  0  0  0  0  0  0  0
   11.5261   39.3871   31.4365 C   0  0  0  0  0  0  0  0  0  0  0  0
   12.7491   39.0893   32.0819 O   0  0  0  0  0  0  0  0  0  0  0  0
   10.6123   38.1893   31.6461 C   0  0  0  0  0  0  0  0  0  0  0  0
   12.9373   37.6827   32.0301 C   0  0  0  0  0  0  0  0  0  0  0  0
    9.6150   38.0838   30.6538 O   0  0  0  0  0  0  0  0  0  0  0  0
   11.5793   37.0136   31.7014 C   0  0  0  0  0  0  0  0  0  0  0  0
   13.4906   37.2169   33.3242 N   0  0  0  0  0  0  0  0  0  0  0  0
   11.6216   36.3252   30.4725 O   0  0  0  0  0  0  0  0  0  0  0  0
   14.4763   36.3266   33.5731 C   0  0  0  0  0  0  0  0  0  0  0  0
   13.1182   37.6308   34.5694 C   0  0  0  0  0  0  0  0  0  0  0  0
   15.2065   35.6137   32.6740 N   0  0  0  0  0  0  0  0  0  0  0  0
   14.6735   36.2270   34.9185 C   0  0  0  0  0  0  0  0  0  0  0  0
   13.8229   37.0451   35.5787 N   0  0  0  0  0  0  0  0  0  0  0  0
   16.1639   34.7593   33.1547 C   0  0  0  0  0  0  0  0  0  0  0  0
   15.6519   35.3489   35.4132 C   0  0  0  0  0  0  0  0  0  0  0  0
   16.3795   34.6308   34.5042 N   0  0  0  0  0  0  0  0  0  0  0  0
   15.9006   35.1931   36.8090 N   0  0  0  0  0  0  0  0  0  0  0  0
    9.7825   45.0057   32.1589 H   0  0  0  0  0  0  0  0  0  0  0  0
   11.8825   45.7125   32.8973 H   0  0  0  0  0  0  0  0  0  0  0  0
   10.8104   46.9719   33.0960 H   0  0  0  0  0  0  0  0  0  0  0  0
    8.4072   46.6424   33.4239 H   0  0  0  0  0  0  0  0  0  0  0  0
    7.8131   44.9777   33.6767 H   0  0  0  0  0  0  0  0  0  0  0  0
   10.2328   46.3870   37.6797 H   0  0  0  0  0  0  0  0  0  0  0  0
    8.6660   47.2668   37.7785 H   0  0  0  0  0  0  0  0  0  0  0  0
    8.6082   49.7223   37.6880 H   0  0  0  0  0  0  0  0  0  0  0  0
   12.3427   47.6285   37.1516 H   0  0  0  0  0  0  0  0  0  0  0  0
    9.8448   51.8475   37.9209 H   0  0  0  0  0  0  0  0  0  0  0  0
   13.5621   49.7641   37.3870 H   0  0  0  0  0  0  0  0  0  0  0  0
   12.3195   51.8739   37.7752 H   0  0  0  0  0  0  0  0  0  0  0  0
   11.3827   41.5503   31.4728 H   0  0  0  0  0  0  0  0  0  0  0  0
    9.8252   40.7180   31.7580 H   0  0  0  0  0  0  0  0  0  0  0  0
   11.7291   39.5287   30.3504 H   0  0  0  0  0  0  0  0  0  0  0  0
   10.1139   38.2718   32.6380 H   0  0  0  0  0  0  0  0  0  0  0  0
   13.6726   37.4636   31.2240 H   0  0  0  0  0  0  0  0  0  0  0  0
   10.0536   38.1085   29.7638 H   0  0  0  0  0  0  0  0  0  0  0  0
   11.2646   36.3134   32.5107 H   0  0  0  0  0  0  0  0  0  0  0  0
   12.1549   35.5032   30.6315 H   0  0  0  0  0  0  0  0  0  0  0  0
   12.3362   38.3586   34.7450 H   0  0  0  0  0  0  0  0  0  0  0  0
   16.7573   34.1788   32.4619 H   0  0  0  0  0  0  0  0  0  0  0  0
   16.6366   34.5314   37.1415 H   0  0  0  0  0  0  0  0  0  0  0  0
   15.3533   35.7353   37.5139 H   0  0  0  0  0  0  0  0  0  0  0  0
  1  2  2  0
  1  3  1  0
  3  4  1  0
  4  5  1  0
  6  1  1  0
  7  6  1  0
  6  8  1  0
  8  9  1  0
  9 10  1  0
  9 11  2  0
 10 12  1  0
 12 13  1  0
 13 14  2  0
 15 13  1  0
 14 16  1  0
 17 15  2  0
 16 18  2  0
 18 17  1  0
  4 19  2  0
  4 20  1  0
 21 20  1  0
 21 22  1  0
 22 23  1  0
 22 24  1  0
 23 25  1  0
 24 26  1  0
 24 27  1  0
 27 25  1  0
 25 28  1  0
 27 29  1  0
 30 28  1  0
 31 28  1  0
 32 30  2  0
 30 33  1  0
 34 31  2  0
 35 32  1  0
 33 36  2  0
 33 34  1  0
 37 35  2  0
 37 36  1  0
 36 38  1  0
  6 39  1  6
  7 40  1  0
  7 41  1  0
  8 42  1  0
  8 43  1  0
 12 44  1  0
 12 45  1  0
 14 46  1  0
 15 47  1  0
 16 48  1  0
 17 49  1  0
 18 50  1  0
 21 51  1  0
 21 52  1  0
 22 53  1  0
 24 54  1  0
 25 55  1  0
 26 56  1  0
 27 57  1  0
 29 58  1  0
 31 59  1  0
 35 60  1  0
 38 61  1  0
 38 62  1  0
M  CHG  1   5  -1
M  END
>  <EmbedRMS>  (340) 
0.08792844728299723

$$$$

     RDKit          3D

 62 65  0  0  0  0  0  0  0  0999 V2000
   10.2829   43.7754   33.8075 C   0  0  0  0  0  0  0  0  0  0  0  0
   11.4086   43.5914   34.3577 O   0  0  0  0  0  0  0  0  0  0  0  0
    9.3669   42.7317   33.7011 O   0  0  0  0  0  0  0  0  0  0  0  0
    9.8864   41.2345   34.2838 P   0  0  0  0  0  5  0  0  0  0  0  0
   10.3666   41.4694   35.8744 O   0  0  0  0  0  1  0  0  0  0  0  0
    9.9533   45.1118   33.2436 C   0  0  2  0  0  0  0  0  0  0  0  0
   11.0725   46.0268   33.4848 N   0  0  0  0  0  0  0  0  0  0  0  0
    8.6401   45.6440   33.8553 C   0  0  0  0  0  0  0  0  0  0  0  0
    8.2241   46.9358   33.2236 C   0  0  0  0  0  0  0  0  0  0  0  0
    8.5463   48.1439   33.8519 O   0  0  0  0  0  0  0  0  0  0  0  0
    7.6223   46.9248   32.1151 O   0  0  0  0  0  0  0  0  0  0  0  0
    8.1830   49.4195   33.3287 C   0  0  0  0  0  0  0  0  0  0  0  0
    6.7033   49.6460   33.4776 C   0  0  0  0  0  0  0  0  0  0  0  0
    6.1429   49.7966   34.7565 C   0  0  0  0  0  0  0  0  0  0  0  0
    5.8663   49.6818   32.3497 C   0  0  0  0  0  0  0  0  0  0  0  0
    4.7656   49.9889   34.9037 C   0  0  0  0  0  0  0  0  0  0  0  0
    4.4894   49.8741   32.5013 C   0  0  0  0  0  0  0  0  0  0  0  0
    3.9396   50.0283   33.7770 C   0  0  0  0  0  0  0  0  0  0  0  0
    8.8090   40.1914   34.2078 O   0  0  0  0  0  0  0  0  0  0  0  0
   11.2387   40.7910   33.3680 O   0  0  0  0  0  0  0  0  0  0  0  0
   10.9187   40.6889   31.9945 C   0  0  0  0  0  0  0  0  0  0  0  0
   11.5180   39.3800   31.4398 C   0  0  0  0  0  0  0  0  0  0  0  0
   12.7483   39.0876   32.0750 O   0  0  0  0  0  0  0  0  0  0  0  0
   10.6053   38.1875   31.6656 C   0  0  0  0  0  0  0  0  0  0  0  0
   12.9361   37.6816   32.0288 C   0  0  0  0  0  0  0  0  0  0  0  0
    9.6423   38.0738   30.6445 O   0  0  0  0  0  0  0  0  0  0  0  0
   11.5765   37.0158   31.7046 C   0  0  0  0  0  0  0  0  0  0  0  0
   13.4908   37.2182   33.3237 N   0  0  0  0  0  0  0  0  0  0  0  0
   11.6103   36.3399   30.4680 O   0  0  0  0  0  0  0  0  0  0  0  0
   14.4762   36.3273   33.5728 C   0  0  0  0  0  0  0  0  0  0  0  0
   13.1181   37.6318   34.5689 C   0  0  0  0  0  0  0  0  0  0  0  0
   15.2063   35.6141   32.6739 N   0  0  0  0  0  0  0  0  0  0  0  0
   14.6733   36.2275   34.9182 C   0  0  0  0  0  0  0  0  0  0  0  0
   13.8226   37.0457   35.5783 N   0  0  0  0  0  0  0  0  0  0  0  0
   16.1636   34.7595   33.1546 C   0  0  0  0  0  0  0  0  0  0  0  0
   15.6515   35.3492   35.4130 C   0  0  0  0  0  0  0  0  0  0  0  0
   16.3791   34.6310   34.5041 N   0  0  0  0  0  0  0  0  0  0  0  0
   15.9002   35.1933   36.8089 N   0  0  0  0  0  0  0  0  0  0  0  0
    9.8201   44.9855   32.1459 H   0  0  0  0  0  0  0  0  0  0  0  0
   10.9419   46.8854   32.9023 H   0  0  0  0  0  0  0  0  0  0  0  0
   11.0778   46.3243   34.4884 H   0  0  0  0  0  0  0  0  0  0  0  0
    8.7587   45.7906   34.9512 H   0  0  0  0  0  0  0  0  0  0  0  0
    7.8252   44.9026   33.7036 H   0  0  0  0  0  0  0  0  0  0  0  0
    8.7260   50.2038   33.8971 H   0  0  0  0  0  0  0  0  0  0  0  0
    8.5056   49.4996   32.2673 H   0  0  0  0  0  0  0  0  0  0  0  0
    6.7727   49.7632   35.6370 H   0  0  0  0  0  0  0  0  0  0  0  0
    6.2773   49.5590   31.3553 H   0  0  0  0  0  0  0  0  0  0  0  0
    4.3385   50.1056   35.8913 H   0  0  0  0  0  0  0  0  0  0  0  0
    3.8483   49.9019   31.6297 H   0  0  0  0  0  0  0  0  0  0  0  0
    2.8737   50.1763   33.8925 H   0  0  0  0  0  0  0  0  0  0  0  0
    9.8305   40.7372   31.7553 H   0  0  0  0  0  0  0  0  0  0  0  0
   11.3986   41.5435   31.4715 H   0  0  0  0  0  0  0  0  0  0  0  0
   11.7002   39.5044   30.3473 H   0  0  0  0  0  0  0  0  0  0  0  0
   10.1104   38.2619   32.6637 H   0  0  0  0  0  0  0  0  0  0  0  0
   13.6696   37.4587   31.2222 H   0  0  0  0  0  0  0  0  0  0  0  0
    8.8999   38.6881   30.8814 H   0  0  0  0  0  0  0  0  0  0  0  0
   11.2690   36.3069   32.5091 H   0  0  0  0  0  0  0  0  0  0  0  0
   12.1427   35.5151   30.6153 H   0  0  0  0  0  0  0  0  0  0  0  0
   12.3359   38.3593   34.7445 H   0  0  0  0  0  0  0  0  0  0  0  0
   16.7569   34.1789   32.4618 H   0  0  0  0  0  0  0  0  0  0  0  0
   16.6362   34.5315   37.1414 H   0  0  0  0  0  0  0  0  0  0  0  0
   15.3530   35.7356   37.5138 H   0  0  0  0  0  0  0  0  0  0  0  0
  1  2  2  0
  1  3  1  0
  3  4  1  0
  4  5  1  0
  6  1  1  0
  7  6  1  0
  6  8  1  0
  8  9  1  0
  9 10  1  0
  9 11  2  0
 10 12  1  0
 12 13  1  0
 13 14  2  0
 15 13  1  0
 14 16  1  0
 17 15  2  0
 16 18  2  0
 18 17  1  0
  4 19  2  0
  4 20  1  0
 21 20  1  0
 21 22  1  0
 22 23  1  0
 22 24  1  0
 23 25  1  0
 24 26  1  0
 24 27  1  0
 27 25  1  0
 25 28  1  0
 27 29  1  0
 30 28  1  0
 31 28  1  0
 32 30  2  0
 30 33  1  0
 34 31  2  0
 35 32  1  0
 33 36  2  0
 33 34  1  0
 37 35  2  0
 37 36  1  0
 36 38  1  0
  6 39  1  6
  7 40  1  0
  7 41  1  0
  8 42  1  0
  8 43  1  0
 12 44  1  0
 12 45  1  0
 14 46  1  0
 15 47  1  0
 16 48  1  0
 17 49  1  0
 18 50  1  0
 21 51  1  0
 21 52  1  0
 22 53  1  0
 24 54  1  0
 25 55  1  0
 26 56  1  0
 27 57  1  0
 29 58  1  0
 31 59  1  0
 35 60  1  0
 38 61  1  0
 38 62  1  0
M  CHG  1   5  -1
M  END
>  <EmbedRMS>  (341) 
0.08904432018422176

$$$$

     RDKit          3D

 62 65  0  0  0  0  0  0  0  0999 V2000
   10.2830   43.7754   33.8079 C   0  0  0  0  0  0  0  0  0  0  0  0
   11.4086   43.5914   34.3581 O   0  0  0  0  0  0  0  0  0  0  0  0
    9.3669   42.7317   33.7013 O   0  0  0  0  0  0  0  0  0  0  0  0
    9.8865   41.2344   34.2838 P   0  0  0  0  0  5  0  0  0  0  0  0
   10.3666   41.4693   35.8745 O   0  0  0  0  0  1  0  0  0  0  0  0
    9.9541   45.1112   33.2425 C   0  0  2  0  0  0  0  0  0  0  0  0
   11.0720   46.0272   33.4849 N   0  0  0  0  0  0  0  0  0  0  0  0
    8.6396   45.6445   33.8504 C   0  0  0  0  0  0  0  0  0  0  0  0
    8.2186   46.9263   33.2016 C   0  0  0  0  0  0  0  0  0  0  0  0
    7.7110   46.9011   31.8999 O   0  0  0  0  0  0  0  0  0  0  0  0
    8.3510   48.0174   33.8206 O   0  0  0  0  0  0  0  0  0  0  0  0
    7.3241   48.0798   31.2031 C   0  0  0  0  0  0  0  0  0  0  0  0
    6.8481   47.7069   29.8300 C   0  0  0  0  0  0  0  0  0  0  0  0
    7.7662   47.5767   28.7750 C   0  0  0  0  0  0  0  0  0  0  0  0
    5.4925   47.4166   29.6037 C   0  0  0  0  0  0  0  0  0  0  0  0
    7.3280   47.1905   27.5043 C   0  0  0  0  0  0  0  0  0  0  0  0
    5.0583   47.0307   28.3315 C   0  0  0  0  0  0  0  0  0  0  0  0
    5.9749   46.9201   27.2821 C   0  0  0  0  0  0  0  0  0  0  0  0
    8.8091   40.1913   34.2077 O   0  0  0  0  0  0  0  0  0  0  0  0
   11.2390   40.7910   33.3682 O   0  0  0  0  0  0  0  0  0  0  0  0
   10.9194   40.6896   31.9946 C   0  0  0  0  0  0  0  0  0  0  0  0
   11.5171   39.3801   31.4397 C   0  0  0  0  0  0  0  0  0  0  0  0
   12.7478   39.0861   32.0734 O   0  0  0  0  0  0  0  0  0  0  0  0
   10.6031   38.1891   31.6666 C   0  0  0  0  0  0  0  0  0  0  0  0
   12.9335   37.6797   32.0280 C   0  0  0  0  0  0  0  0  0  0  0  0
    9.6397   38.0777   30.6456 O   0  0  0  0  0  0  0  0  0  0  0  0
   11.5739   37.0154   31.7057 C   0  0  0  0  0  0  0  0  0  0  0  0
   13.4903   37.2178   33.3231 N   0  0  0  0  0  0  0  0  0  0  0  0
   11.6211   36.3376   30.4695 O   0  0  0  0  0  0  0  0  0  0  0  0
   14.4761   36.3273   33.5725 C   0  0  0  0  0  0  0  0  0  0  0  0
   13.1179   37.6317   34.5684 C   0  0  0  0  0  0  0  0  0  0  0  0
   15.2063   35.6139   32.6737 N   0  0  0  0  0  0  0  0  0  0  0  0
   14.6733   36.2277   34.9179 C   0  0  0  0  0  0  0  0  0  0  0  0
   13.8226   37.0459   35.5779 N   0  0  0  0  0  0  0  0  0  0  0  0
   16.1636   34.7594   33.1546 C   0  0  0  0  0  0  0  0  0  0  0  0
   15.6515   35.3494   35.4129 C   0  0  0  0  0  0  0  0  0  0  0  0
   16.3791   34.6311   34.5041 N   0  0  0  0  0  0  0  0  0  0  0  0
   15.9001   35.1935   36.8088 N   0  0  0  0  0  0  0  0  0  0  0  0
    9.8239   44.9833   32.1446 H   0  0  0  0  0  0  0  0  0  0  0  0
   11.0787   46.3203   34.4898 H   0  0  0  0  0  0  0  0  0  0  0  0
   10.9374   46.8882   32.9068 H   0  0  0  0  0  0  0  0  0  0  0  0
    8.7552   45.7930   34.9471 H   0  0  0  0  0  0  0  0  0  0  0  0
    7.8263   44.9025   33.6965 H   0  0  0  0  0  0  0  0  0  0  0  0
    8.1903   48.7736   31.1298 H   0  0  0  0  0  0  0  0  0  0  0  0
    6.5153   48.5982   31.7634 H   0  0  0  0  0  0  0  0  0  0  0  0
    8.8190   47.7731   28.9367 H   0  0  0  0  0  0  0  0  0  0  0  0
    4.7736   47.4883   30.4107 H   0  0  0  0  0  0  0  0  0  0  0  0
    8.0382   47.0967   26.6929 H   0  0  0  0  0  0  0  0  0  0  0  0
    4.0120   46.8134   28.1602 H   0  0  0  0  0  0  0  0  0  0  0  0
    5.6375   46.6198   26.2985 H   0  0  0  0  0  0  0  0  0  0  0  0
    9.8315   40.7396   31.7549 H   0  0  0  0  0  0  0  0  0  0  0  0
   11.4008   41.5437   31.4721 H   0  0  0  0  0  0  0  0  0  0  0  0
   11.6983   39.5042   30.3470 H   0  0  0  0  0  0  0  0  0  0  0  0
   10.1090   38.2632   32.6649 H   0  0  0  0  0  0  0  0  0  0  0  0
   13.6656   37.4541   31.2207 H   0  0  0  0  0  0  0  0  0  0  0  0
    8.8965   38.6901   30.8851 H   0  0  0  0  0  0  0  0  0  0  0  0
   11.2845   36.3060   32.5175 H   0  0  0  0  0  0  0  0  0  0  0  0
   10.8523   35.7095   30.4590 H   0  0  0  0  0  0  0  0  0  0  0  0
   12.3353   38.3588   34.7439 H   0  0  0  0  0  0  0  0  0  0  0  0
   16.7570   34.1788   32.4619 H   0  0  0  0  0  0  0  0  0  0  0  0
   16.6360   34.5317   37.1413 H   0  0  0  0  0  0  0  0  0  0  0  0
   15.3529   35.7359   37.5136 H   0  0  0  0  0  0  0  0  0  0  0  0
  1  2  2  0
  1  3  1  0
  3  4  1  0
  4  5  1  0
  6  1  1  0
  7  6  1  0
  6  8  1  0
  8  9  1  0
  9 10  1  0
  9 11  2  0
 10 12  1  0
 12 13  1  0
 13 14  2  0
 15 13  1  0
 14 16  1  0
 17 15  2  0
 16 18  2  0
 18 17  1  0
  4 19  2  0
  4 20  1  0
 21 20  1  0
 21 22  1  0
 22 23  1  0
 22 24  1  0
 23 25  1  0
 24 26  1  0
 24 27  1  0
 27 25  1  0
 25 28  1  0
 27 29  1  0
 30 28  1  0
 31 28  1  0
 32 30  2  0
 30 33  1  0
 34 31  2  0
 35 32  1  0
 33 36  2  0
 33 34  1  0
 37 35  2  0
 37 36  1  0
 36 38  1  0
  6 39  1  6
  7 40  1  0
  7 41  1  0
  8 42  1  0
  8 43  1  0
 12 44  1  0
 12 45  1  0
 14 46  1  0
 15 47  1  0
 16 48  1  0
 17 49  1  0
 18 50  1  0
 21 51  1  0
 21 52  1  0
 22 53  1  0
 24 54  1  0
 25 55  1  0
 26 56  1  0
 27 57  1  0
 29 58  1  0
 31 59  1  0
 35 60  1  0
 38 61  1  0
 38 62  1  0
M  CHG  1   5  -1
M  END
>  <EmbedRMS>  (342) 
0.08916470250950477

$$$$

     RDKit          3D

 62 65  0  0  0  0  0  0  0  0999 V2000
   10.2808   43.7753   33.8082 C   0  0  0  0  0  0  0  0  0  0  0  0
   11.4040   43.5911   34.3638 O   0  0  0  0  0  0  0  0  0  0  0  0
    9.3694   42.7288   33.6945 O   0  0  0  0  0  0  0  0  0  0  0  0
    9.8867   41.2336   34.2830 P   0  0  0  0  0  5  0  0  0  0  0  0
   10.3655   41.4709   35.8737 O   0  0  0  0  0  1  0  0  0  0  0  0
    9.9432   45.1248   33.2665 C   0  0  2  0  0  0  0  0  0  0  0  0
   11.0826   46.0224   33.4649 N   0  0  0  0  0  0  0  0  0  0  0  0
    8.7035   45.7072   33.9785 C   0  0  0  0  0  0  0  0  0  0  0  0
    7.4398   45.0106   33.5746 C   0  0  0  0  0  0  0  0  0  0  0  0
    6.9138   44.0085   34.3942 O   0  0  0  0  0  0  0  0  0  0  0  0
    6.8771   45.3144   32.4873 O   0  0  0  0  0  0  0  0  0  0  0  0
    5.7176   43.3050   34.0787 C   0  0  0  0  0  0  0  0  0  0  0  0
    5.4930   42.2298   35.1011 C   0  0  0  0  0  0  0  0  0  0  0  0
    5.1046   42.5729   36.4063 C   0  0  0  0  0  0  0  0  0  0  0  0
    5.7144   40.8801   34.7802 C   0  0  0  0  0  0  0  0  0  0  0  0
    4.9289   41.5778   37.3731 C   0  0  0  0  0  0  0  0  0  0  0  0
    5.5394   39.8882   35.7501 C   0  0  0  0  0  0  0  0  0  0  0  0
    5.1459   40.2365   37.0452 C   0  0  0  0  0  0  0  0  0  0  0  0
    8.8111   40.1892   34.2077 O   0  0  0  0  0  0  0  0  0  0  0  0
   11.2381   40.7905   33.3670 O   0  0  0  0  0  0  0  0  0  0  0  0
   10.9143   40.6860   31.9945 C   0  0  0  0  0  0  0  0  0  0  0  0
   11.5172   39.3796   31.4407 C   0  0  0  0  0  0  0  0  0  0  0  0
   12.7490   39.0884   32.0759 O   0  0  0  0  0  0  0  0  0  0  0  0
   10.6051   38.1878   31.6660 C   0  0  0  0  0  0  0  0  0  0  0  0
   12.9412   37.6827   32.0277 C   0  0  0  0  0  0  0  0  0  0  0  0
    9.6358   38.0931   30.6504 O   0  0  0  0  0  0  0  0  0  0  0  0
   11.5826   37.0179   31.6937 C   0  0  0  0  0  0  0  0  0  0  0  0
   13.4909   37.2176   33.3239 N   0  0  0  0  0  0  0  0  0  0  0  0
   11.6139   36.3179   30.4676 O   0  0  0  0  0  0  0  0  0  0  0  0
   14.4763   36.3270   33.5733 C   0  0  0  0  0  0  0  0  0  0  0  0
   13.1178   37.6316   34.5688 C   0  0  0  0  0  0  0  0  0  0  0  0
   15.2067   35.6139   32.6744 N   0  0  0  0  0  0  0  0  0  0  0  0
   14.6731   36.2273   34.9186 C   0  0  0  0  0  0  0  0  0  0  0  0
   13.8222   37.0456   35.5785 N   0  0  0  0  0  0  0  0  0  0  0  0
   16.1638   34.7594   33.1552 C   0  0  0  0  0  0  0  0  0  0  0  0
   15.6515   35.3492   35.4135 C   0  0  0  0  0  0  0  0  0  0  0  0
   16.3792   34.6310   34.5047 N   0  0  0  0  0  0  0  0  0  0  0  0
   15.9001   35.1934   36.8093 N   0  0  0  0  0  0  0  0  0  0  0  0
    9.7381   45.0324   32.1755 H   0  0  0  0  0  0  0  0  0  0  0  0
   11.8818   45.6751   32.8847 H   0  0  0  0  0  0  0  0  0  0  0  0
   10.8423   46.9591   33.0657 H   0  0  0  0  0  0  0  0  0  0  0  0
    8.8299   45.6417   35.0816 H   0  0  0  0  0  0  0  0  0  0  0  0
    8.5951   46.7841   33.7241 H   0  0  0  0  0  0  0  0  0  0  0  0
    4.8582   44.0100   34.0839 H   0  0  0  0  0  0  0  0  0  0  0  0
    5.7991   42.8657   33.0601 H   0  0  0  0  0  0  0  0  0  0  0  0
    4.9421   43.6097   36.6743 H   0  0  0  0  0  0  0  0  0  0  0  0
    6.0250   40.5953   33.7825 H   0  0  0  0  0  0  0  0  0  0  0  0
    4.6282   41.8468   38.3774 H   0  0  0  0  0  0  0  0  0  0  0  0
    5.7117   38.8497   35.4982 H   0  0  0  0  0  0  0  0  0  0  0  0
    5.0118   39.4676   37.7951 H   0  0  0  0  0  0  0  0  0  0  0  0
   11.3864   41.5432   31.4686 H   0  0  0  0  0  0  0  0  0  0  0  0
    9.8241   40.7213   31.7579 H   0  0  0  0  0  0  0  0  0  0  0  0
   11.6995   39.5064   30.3485 H   0  0  0  0  0  0  0  0  0  0  0  0
   10.1121   38.2726   32.6633 H   0  0  0  0  0  0  0  0  0  0  0  0
   13.6816   37.4628   31.2268 H   0  0  0  0  0  0  0  0  0  0  0  0
    9.0026   37.3841   30.9359 H   0  0  0  0  0  0  0  0  0  0  0  0
   11.2845   36.3042   32.4930 H   0  0  0  0  0  0  0  0  0  0  0  0
   11.8846   36.9589   29.7589 H   0  0  0  0  0  0  0  0  0  0  0  0
   12.3362   38.3599   34.7440 H   0  0  0  0  0  0  0  0  0  0  0  0
   16.7572   34.1787   32.4625 H   0  0  0  0  0  0  0  0  0  0  0  0
   16.6361   34.5318   37.1420 H   0  0  0  0  0  0  0  0  0  0  0  0
   15.3527   35.7356   37.5141 H   0  0  0  0  0  0  0  0  0  0  0  0
  1  2  2  0
  1  3  1  0
  3  4  1  0
  4  5  1  0
  6  1  1  0
  7  6  1  0
  6  8  1  0
  8  9  1  0
  9 10  1  0
  9 11  2  0
 10 12  1  0
 12 13  1  0
 13 14  2  0
 15 13  1  0
 14 16  1  0
 17 15  2  0
 16 18  2  0
 18 17  1  0
  4 19  2  0
  4 20  1  0
 21 20  1  0
 21 22  1  0
 22 23  1  0
 22 24  1  0
 23 25  1  0
 24 26  1  0
 24 27  1  0
 27 25  1  0
 25 28  1  0
 27 29  1  0
 30 28  1  0
 31 28  1  0
 32 30  2  0
 30 33  1  0
 34 31  2  0
 35 32  1  0
 33 36  2  0
 33 34  1  0
 37 35  2  0
 37 36  1  0
 36 38  1  0
  6 39  1  6
  7 40  1  0
  7 41  1  0
  8 42  1  0
  8 43  1  0
 12 44  1  0
 12 45  1  0
 14 46  1  0
 15 47  1  0
 16 48  1  0
 17 49  1  0
 18 50  1  0
 21 51  1  0
 21 52  1  0
 22 53  1  0
 24 54  1  0
 25 55  1  0
 26 56  1  0
 27 57  1  0
 29 58  1  0
 31 59  1  0
 35 60  1  0
 38 61  1  0
 38 62  1  0
M  CHG  1   5  -1
M  END
>  <EmbedRMS>  (343) 
0.08824271518170024

$$$$
